*SPEF "ieee 1481-1999"
*DESIGN "twos_complement"
*DATE "13:20:56 Monday April 21, 2025"
*VENDOR "The OpenROAD Project"
*PROGRAM "OpenROAD"
*VERSION "b16bda7e82721d10566ff7e2b68f1ff0be9f9e38"
*DESIGN_FLOW "NAME_SCOPE LOCAL" "PIN_CAP NONE"
*DIVIDER /
*DELIMITER :
*BUS_DELIMITER []
*T_UNIT 1 NS
*C_UNIT 1 PF
*R_UNIT 1 OHM
*L_UNIT 1 HENRY

*NAME_MAP
*3 in[0]
*4 in[1]
*5 in[2]
*6 in[3]
*7 in[4]
*8 in[5]
*9 in[6]
*10 in[7]
*11 out[0]
*12 out[1]
*13 out[2]
*14 out[3]
*15 out[4]
*16 out[5]
*17 out[6]
*18 out[7]
*19 _00_
*20 _01_
*21 _02_
*22 _03_
*23 _04_
*24 _05_
*25 _06_
*26 _07_
*27 _08_
*28 _09_
*29 net1
*30 net10
*31 net11
*32 net12
*33 net13
*34 net14
*35 net15
*36 net16
*37 net2
*38 net3
*39 net4
*40 net5
*41 net6
*42 net7
*43 net8
*44 net9
*45 FILLER_0_0_20
*46 FILLER_0_0_29
*47 FILLER_0_0_37
*48 FILLER_0_0_9
*49 FILLER_0_10_18
*50 FILLER_0_10_26
*51 FILLER_0_10_29
*52 FILLER_0_10_41
*53 FILLER_0_10_6
*54 FILLER_0_11_13
*55 FILLER_0_11_25
*56 FILLER_0_11_37
*57 FILLER_0_11_45
*58 FILLER_0_11_6
*59 FILLER_0_12_13
*60 FILLER_0_12_25
*61 FILLER_0_12_29
*62 FILLER_0_12_37
*63 FILLER_0_1_14
*64 FILLER_0_1_22
*65 FILLER_0_1_3
*66 FILLER_0_1_30
*67 FILLER_0_1_38
*68 FILLER_0_1_43
*69 FILLER_0_1_47
*70 FILLER_0_2_12
*71 FILLER_0_2_24
*72 FILLER_0_2_29
*73 FILLER_0_2_3
*74 FILLER_0_2_37
*75 FILLER_0_2_41
*76 FILLER_0_2_47
*77 FILLER_0_3_15
*78 FILLER_0_3_27
*79 FILLER_0_3_39
*80 FILLER_0_3_43
*81 FILLER_0_3_6
*82 FILLER_0_4_15
*83 FILLER_0_4_27
*84 FILLER_0_4_3
*85 FILLER_0_4_36
*86 FILLER_0_5_12
*87 FILLER_0_5_19
*88 FILLER_0_5_31
*89 FILLER_0_5_43
*90 FILLER_0_5_6
*91 FILLER_0_6_11
*92 FILLER_0_6_27
*93 FILLER_0_6_29
*94 FILLER_0_6_3
*95 FILLER_0_6_41
*96 FILLER_0_6_47
*97 FILLER_0_7_20
*98 FILLER_0_7_24
*99 FILLER_0_7_3
*100 FILLER_0_7_30
*101 FILLER_0_7_38
*102 FILLER_0_7_43
*103 FILLER_0_7_47
*104 FILLER_0_8_12
*105 FILLER_0_8_24
*106 FILLER_0_8_34
*107 FILLER_0_8_42
*108 FILLER_0_9_15
*109 FILLER_0_9_26
*110 FILLER_0_9_3
*111 FILLER_0_9_38
*112 FILLER_0_9_46
*113 PHY_EDGE_ROW_0_Left_13
*114 PHY_EDGE_ROW_0_Right_0
*115 PHY_EDGE_ROW_10_Left_23
*116 PHY_EDGE_ROW_10_Right_10
*117 PHY_EDGE_ROW_11_Left_24
*118 PHY_EDGE_ROW_11_Right_11
*119 PHY_EDGE_ROW_12_Left_25
*120 PHY_EDGE_ROW_12_Right_12
*121 PHY_EDGE_ROW_1_Left_14
*122 PHY_EDGE_ROW_1_Right_1
*123 PHY_EDGE_ROW_2_Left_15
*124 PHY_EDGE_ROW_2_Right_2
*125 PHY_EDGE_ROW_3_Left_16
*126 PHY_EDGE_ROW_3_Right_3
*127 PHY_EDGE_ROW_4_Left_17
*128 PHY_EDGE_ROW_4_Right_4
*129 PHY_EDGE_ROW_5_Left_18
*130 PHY_EDGE_ROW_5_Right_5
*131 PHY_EDGE_ROW_6_Left_19
*132 PHY_EDGE_ROW_6_Right_6
*133 PHY_EDGE_ROW_7_Left_20
*134 PHY_EDGE_ROW_7_Right_7
*135 PHY_EDGE_ROW_8_Left_21
*136 PHY_EDGE_ROW_8_Right_8
*137 PHY_EDGE_ROW_9_Left_22
*138 PHY_EDGE_ROW_9_Right_9
*139 TAP_TAPCELL_ROW_0_26
*140 TAP_TAPCELL_ROW_10_31
*141 TAP_TAPCELL_ROW_12_32
*142 TAP_TAPCELL_ROW_2_27
*143 TAP_TAPCELL_ROW_4_28
*144 TAP_TAPCELL_ROW_6_29
*145 TAP_TAPCELL_ROW_8_30
*146 _10_
*147 _11_
*148 _12_
*149 _13_
*150 _14_
*151 _15_
*152 _16_
*153 _17_
*154 _18_
*155 _19_
*156 _20_
*157 _21_
*158 _22_
*159 _23_
*160 _24_
*161 _25_
*162 _26_
*163 _27_
*164 input1
*165 input2
*166 input3
*167 input4
*168 input5
*169 input6
*170 input7
*171 input8
*172 output10
*173 output11
*174 output12
*175 output13
*176 output14
*177 output15
*178 output16
*179 output9

*PORTS
in[0] I
in[1] I
in[2] I
in[3] I
in[4] I
in[5] I
in[6] I
in[7] I
out[0] O
out[1] O
out[2] O
out[3] O
out[4] O
out[5] O
out[6] O
out[7] O

*D_NET *3 0.000986291
*CONN
*P in[0] I
*I *164:A I *D sky130_fd_sc_hd__dlymetal6s2s_1
*CAP
1 in[0] 0.000493145
2 *164:A 0.000493145
3 *164:A *165:A 0
*RES
1 in[0] *164:A 9.94677 
*END

*D_NET *4 0.000708939
*CONN
*P in[1] I
*I *165:A I *D sky130_fd_sc_hd__buf_1
*CAP
1 in[1] 0.00035447
2 *165:A 0.00035447
3 *165:A *166:A 0
4 *164:A *165:A 0
*RES
1 in[1] *165:A 8.3643 
*END

*D_NET *5 0.000535568
*CONN
*P in[2] I
*I *166:A I *D sky130_fd_sc_hd__buf_1
*CAP
1 in[2] 0.000267784
2 *166:A 0.000267784
3 *166:A *167:A 0
4 *165:A *166:A 0
*RES
1 in[2] *166:A 6.8343 
*END

*D_NET *6 0.0011232
*CONN
*P in[3] I
*I *167:A I *D sky130_fd_sc_hd__clkbuf_1
*CAP
1 in[3] 0.000394733
2 *167:A 0.000394733
3 *167:A *156:A 0.000127866
4 *167:A *158:A 0.000205868
5 *167:A *160:B 0
6 *167:A *162:A 0
7 *167:A *168:A 0
8 *166:A *167:A 0
*RES
1 in[3] *167:A 9.9087 
*END

*D_NET *7 0.000569311
*CONN
*P in[4] I
*I *168:A I *D sky130_fd_sc_hd__buf_1
*CAP
1 in[4] 0.000284655
2 *168:A 0.000284655
3 *168:A *160:B 0
4 *168:A *169:A 0
5 *167:A *168:A 0
*RES
1 in[4] *168:A 7.0893 
*END

*D_NET *8 0.000674236
*CONN
*P in[5] I
*I *169:A I *D sky130_fd_sc_hd__buf_1
*CAP
1 in[5] 0.000337118
2 *169:A 0.000337118
3 *169:A *160:B 0
4 *169:A *170:A 0
5 *168:A *169:A 0
*RES
1 in[5] *169:A 8.1093 
*END

*D_NET *9 0.000523624
*CONN
*P in[6] I
*I *170:A I *D sky130_fd_sc_hd__clkbuf_1
*CAP
1 in[6] 0.000261812
2 *170:A 0.000261812
3 *170:A *171:A 0
4 *169:A *170:A 0
*RES
1 in[6] *170:A 6.8343 
*END

*D_NET *10 0.00115517
*CONN
*P in[7] I
*I *171:A I *D sky130_fd_sc_hd__clkbuf_1
*CAP
1 in[7] 0.000577586
2 *171:A 0.000577586
3 *171:A *147:A 0
4 *170:A *171:A 0
*RES
1 in[7] *171:A 10.6316 
*END

*D_NET *11 0.00109227
*CONN
*P out[0] O
*I *179:X O *D sky130_fd_sc_hd__buf_2
*CAP
1 out[0] 0.000546133
2 *179:X 0.000546133
3 out[0] out[1] 0
*RES
1 *179:X out[0] 9.66983 
*END

*D_NET *12 0.000411239
*CONN
*P out[1] O
*I *172:X O *D sky130_fd_sc_hd__buf_2
*CAP
1 out[1] 0.00020562
2 *172:X 0.00020562
3 out[1] out[2] 0
4 out[0] out[1] 0
*RES
1 *172:X out[1] 4.84677 
*END

*D_NET *13 0.000410041
*CONN
*P out[2] O
*I *173:X O *D sky130_fd_sc_hd__buf_2
*CAP
1 out[2] 0.00020502
2 *173:X 0.00020502
3 out[2] out[3] 0
4 out[2] *179:A 0
5 out[1] out[2] 0
*RES
1 *173:X out[2] 4.84677 
*END

*D_NET *14 0.000556923
*CONN
*P out[3] O
*I *174:X O *D sky130_fd_sc_hd__buf_2
*CAP
1 out[3] 0.000248117
2 *174:X 0.000248117
3 out[3] out[4] 0
4 out[3] *174:A 6.06899e-05
5 out[2] out[3] 0
*RES
1 *174:X out[3] 5.86677 
*END

*D_NET *15 0.000413408
*CONN
*P out[4] O
*I *175:X O *D sky130_fd_sc_hd__buf_2
*CAP
1 out[4] 0.000200848
2 *175:X 0.000200848
3 out[4] out[5] 0
4 out[4] *174:A 1.17114e-05
5 out[3] out[4] 0
*RES
1 *175:X out[4] 4.84677 
*END

*D_NET *16 0.000555695
*CONN
*P out[5] O
*I *176:X O *D sky130_fd_sc_hd__buf_2
*CAP
1 out[5] 0.000258517
2 *176:X 0.000258517
3 out[5] out[6] 0
4 out[5] *174:A 3.86607e-05
5 out[5] *179:A 0
6 out[4] out[5] 0
*RES
1 *176:X out[5] 5.86677 
*END

*D_NET *17 0.000725463
*CONN
*P out[6] O
*I *177:X O *D sky130_fd_sc_hd__buf_2
*CAP
1 out[6] 0.000362731
2 *177:X 0.000362731
3 out[6] out[7] 0
4 out[5] out[6] 0
*RES
1 *177:X out[6] 5.19637 
*END

*D_NET *18 0.000971234
*CONN
*P out[7] O
*I *178:X O *D sky130_fd_sc_hd__clkbuf_4
*CAP
1 out[7] 0.000485617
2 *178:X 0.000485617
3 out[6] out[7] 0
*RES
1 *178:X out[7] 10.1435 
*END

*D_NET *19 0.00813142
*CONN
*I *162:A I *D sky130_fd_sc_hd__nor2_1
*I *147:B I *D sky130_fd_sc_hd__xnor2_1
*I *146:Y O *D sky130_fd_sc_hd__nor2_1
*CAP
1 *162:A 0.000485978
2 *147:B 0.000551769
3 *146:Y 0.00104396
4 *19:8 0.0020817
5 *147:B *147:A 4.82919e-05
6 *147:B *156:C 0.000166998
7 *147:B *160:B 0.00103651
8 *147:B *42:8 0.000860601
9 *162:A *156:C 2.50049e-05
10 *162:A *160:B 0.000178248
11 *162:A *29:18 0
12 *162:A *37:12 0.00070139
13 *19:8 *146:B 0.000385327
14 *19:8 *37:12 0.000232098
15 *19:8 *37:27 6.21932e-05
16 *19:8 *37:34 0.000271347
17 *167:A *162:A 0
*RES
1 *146:Y *19:8 16.815 
2 *19:8 *147:B 20.775 
3 *19:8 *162:A 14.805 
*END

*D_NET *20 0.00150519
*CONN
*I *150:A_N I *D sky130_fd_sc_hd__and2b_1
*I *148:X O *D sky130_fd_sc_hd__o31a_1
*CAP
1 *150:A_N 0.000292318
2 *148:X 0.000292318
3 *150:A_N *148:A1 0.000272994
4 *150:A_N *149:D 4.82863e-05
5 *150:A_N *151:A 0.000446567
6 *150:A_N *153:B 4.85494e-05
7 *150:A_N *21:51 4.51031e-05
8 *150:A_N *29:42 5.9054e-05
*RES
1 *148:X *150:A_N 15.3 
*END

*D_NET *21 0.00427795
*CONN
*I *153:B I *D sky130_fd_sc_hd__and2_1
*I *150:B I *D sky130_fd_sc_hd__and2b_1
*I *156:D I *D sky130_fd_sc_hd__or4_1
*I *157:A3 I *D sky130_fd_sc_hd__o31ai_1
*I *152:B I *D sky130_fd_sc_hd__nor2_1
*I *149:X O *D sky130_fd_sc_hd__or4_2
*CAP
1 *153:B 0.00015093
2 *150:B 0
3 *156:D 0.000328379
4 *157:A3 0
5 *152:B 0.000415786
6 *149:X 5.45377e-05
7 *21:51 0.000224285
8 *21:36 0.000446901
9 *21:12 0.000557145
10 *21:6 0.000241064
11 *152:B *147:A 0.000213171
12 *152:B *154:A 0
13 *152:B *155:B 0
14 *152:B *159:A 0
15 *152:B *23:8 6.11797e-05
16 *152:B *38:12 6.89789e-05
17 *153:B *154:A 0
18 *153:B *158:B 0
19 *153:B *29:42 0.000124895
20 *156:D *149:A 2.49909e-05
21 *156:D *149:B 4.66108e-05
22 *156:D *149:C 8.40269e-05
23 *156:D *149:D 1.09281e-05
24 *156:D *156:B 0.000291358
25 *156:D *29:18 0.000135792
26 *21:6 *149:D 8.4841e-05
27 *21:12 *149:D 8.3874e-05
28 *21:12 *159:A 0
29 *21:12 *38:12 6.64038e-06
30 *21:12 *40:27 0.000116165
31 *21:36 *149:A 5.04569e-05
32 *21:36 *159:A 2.91611e-05
33 *21:36 *40:27 1.32017e-05
34 *21:51 *149:B 4.77757e-05
35 *21:51 *149:D 5.01585e-05
36 *21:51 *29:42 0.000221063
37 *150:A_N *153:B 4.85494e-05
38 *150:A_N *21:51 4.51031e-05
*RES
1 *149:X *21:6 2.395 
2 *21:6 *21:12 4.43 
3 *21:12 *152:B 11.31 
4 *21:12 *157:A3 3.6 
5 *21:6 *21:36 5.125 
6 *21:36 *156:D 12.23 
7 *21:36 *21:51 2.52 
8 *21:51 *150:B 1.6 
9 *21:51 *153:B 8.63 
*END

*D_NET *22 0.00217445
*CONN
*I *151:A I *D sky130_fd_sc_hd__clkbuf_1
*I *150:X O *D sky130_fd_sc_hd__and2b_1
*CAP
1 *151:A 0.000601713
2 *150:X 0.000601713
3 *151:A *148:A1 0
4 *151:A *173:A 0
5 *151:A *177:A 0.000141592
6 *151:A *179:A 0.000382863
7 *150:A_N *151:A 0.000446567
*RES
1 *150:X *151:A 19.2 
*END

*D_NET *23 0.00347712
*CONN
*I *154:A I *D sky130_fd_sc_hd__nor2_1
*I *155:B I *D sky130_fd_sc_hd__xnor2_1
*I *152:Y O *D sky130_fd_sc_hd__nor2_1
*CAP
1 *154:A 0.00063284
2 *155:B 0.000203599
3 *152:Y 0.000378434
4 *23:8 0.00121487
5 *154:A *148:B1 0.000315139
6 *154:A *154:B 0.000177723
7 *154:A *158:B 0
8 *154:A *159:A 6.31891e-05
9 *154:A *162:B 0
10 *154:A *163:A 0
11 *154:A *176:A 0
12 *154:A *29:44 0
13 *154:A *39:12 0.000372579
14 *155:B *155:A 2.75229e-05
15 *155:B *163:A 0
16 *155:B *173:A 0
17 *155:B *176:A 0
18 *155:B *178:A 3.00381e-05
19 *152:B *154:A 0
20 *152:B *155:B 0
21 *152:B *23:8 6.11797e-05
22 *153:B *154:A 0
*RES
1 *152:Y *23:8 7.845 
2 *23:8 *155:B 6.96 
3 *23:8 *154:A 17.475 
*END

*D_NET *24 0.000514123
*CONN
*I *154:B I *D sky130_fd_sc_hd__nor2_1
*I *153:X O *D sky130_fd_sc_hd__and2_1
*CAP
1 *154:B 0.0001682
2 *153:X 0.0001682
3 *154:B *158:B 0
4 *154:B *173:A 0
5 *154:A *154:B 0.000177723
*RES
1 *153:X *154:B 10.875 
*END

*D_NET *25 0.00485119
*CONN
*I *158:A I *D sky130_fd_sc_hd__and2_1
*I *160:B I *D sky130_fd_sc_hd__xor2_1
*I *156:X O *D sky130_fd_sc_hd__or4_1
*CAP
1 *158:A 0.000649254
2 *160:B 0.0007139
3 *156:X 0
4 *25:4 0.00136315
5 *158:A *156:A 0.000168012
6 *158:A *159:A 0.000103462
7 *158:A *39:12 0.000341324
8 *160:B *155:A 4.36847e-05
9 *160:B *160:A 4.77757e-05
10 *147:B *160:B 0.00103651
11 *162:A *160:B 0.000178248
12 *167:A *158:A 0.000205868
13 *167:A *160:B 0
14 *168:A *160:B 0
15 *169:A *160:B 0
*RES
1 *156:X *25:4 1.6 
2 *25:4 *160:B 21.995 
3 *25:4 *158:A 13.24 
*END

*D_NET *26 0.00205724
*CONN
*I *158:B I *D sky130_fd_sc_hd__and2_1
*I *157:Y O *D sky130_fd_sc_hd__o31ai_1
*CAP
1 *158:B 0.000794168
2 *157:Y 0.000794168
3 *158:B *146:B 8.45475e-05
4 *158:B *157:A1 9.00151e-05
5 *158:B *173:A 0.000112971
6 *158:B *29:44 0.000181369
7 *153:B *158:B 0
8 *154:A *158:B 0
9 *154:B *158:B 0
*RES
1 *157:Y *158:B 18.63 
*END

*D_NET *27 0.00256005
*CONN
*I *159:A I *D sky130_fd_sc_hd__clkbuf_1
*I *158:X O *D sky130_fd_sc_hd__and2_1
*CAP
1 *159:A 0.000878186
2 *158:X 0.000878186
3 *159:A *148:B1 0.00017584
4 *159:A *156:A 0
5 *159:A *162:B 0
6 *159:A *177:A 9.40533e-05
7 *159:A *29:31 6.72636e-05
8 *159:A *39:12 0.000270709
9 *152:B *159:A 0
10 *154:A *159:A 6.31891e-05
11 *158:A *159:A 0.000103462
12 *21:12 *159:A 0
13 *21:36 *159:A 2.91611e-05
*RES
1 *158:X *159:A 22.815 
*END

*D_NET *28 0.00129494
*CONN
*I *162:B I *D sky130_fd_sc_hd__nor2_1
*I *161:X O *D sky130_fd_sc_hd__and2_1
*CAP
1 *162:B 0.000467518
2 *161:X 0.000467518
3 *162:B *156:A 0.000136877
4 *162:B *172:A 7.18771e-05
5 *162:B *38:10 0.000151145
6 *162:B *39:12 0
7 *154:A *162:B 0
8 *159:A *162:B 0
*RES
1 *161:X *162:B 16.095 
*END

*D_NET *29 0.0076882
*CONN
*I *146:B I *D sky130_fd_sc_hd__nor2_1
*I *148:A2 I *D sky130_fd_sc_hd__o31a_1
*I *163:A I *D sky130_fd_sc_hd__clkbuf_1
*I *149:B I *D sky130_fd_sc_hd__or4_2
*I *161:B I *D sky130_fd_sc_hd__and2_1
*I *164:X O *D sky130_fd_sc_hd__dlymetal6s2s_1
*CAP
1 *146:B 0.000144271
2 *148:A2 0
3 *163:A 0.000368685
4 *149:B 6.35112e-05
5 *161:B 0
6 *164:X 0.000728605
7 *29:44 0.000525343
8 *29:42 0.0006804
9 *29:31 0.000525716
10 *29:18 0.000811339
11 *146:B *146:A 0.000245829
12 *146:B *173:A 9.14049e-05
13 *146:B *37:34 8.23457e-05
14 *163:A *173:A 0.000519815
15 *163:A *176:A 0.000129678
16 *163:A *178:A 0.000158394
17 *29:18 *153:A 0.000123592
18 *29:18 *156:B 6.15563e-05
19 *29:18 *37:12 0.000452765
20 *29:18 *37:27 4.77757e-05
21 *29:31 *149:A 5.71481e-05
22 *29:31 *153:A 4.77719e-05
23 *29:31 *37:27 3.6355e-05
24 *29:44 *173:A 0.000432198
25 *150:A_N *29:42 5.9054e-05
26 *153:B *29:42 0.000124895
27 *154:A *163:A 0
28 *154:A *29:44 0
29 *155:B *163:A 0
30 *156:D *149:B 4.66108e-05
31 *156:D *29:18 0.000135792
32 *158:B *146:B 8.45475e-05
33 *158:B *29:44 0.000181369
34 *159:A *29:31 6.72636e-05
35 *162:A *29:18 0
36 *19:8 *146:B 0.000385327
37 *21:51 *149:B 4.77757e-05
38 *21:51 *29:42 0.000221063
*RES
1 *164:X *29:18 19.865 
2 *29:18 *161:B 1.6 
3 *29:18 *29:31 6.085 
4 *29:31 *149:B 2.395 
5 *29:31 *29:42 6.935 
6 *29:42 *29:44 4.95 
7 *29:44 *163:A 13.125 
8 *29:44 *148:A2 3.6 
9 *29:42 *146:B 8.895 
*END

*D_NET *30 0.00231831
*CONN
*I *172:A I *D sky130_fd_sc_hd__buf_2
*I *162:Y O *D sky130_fd_sc_hd__nor2_1
*CAP
1 *172:A 0.00112322
2 *162:Y 0.00112322
3 *172:A *179:A 0
4 *162:B *172:A 7.18771e-05
*RES
1 *162:Y *172:A 20.07 
*END

*D_NET *31 0.00462235
*CONN
*I *173:A I *D sky130_fd_sc_hd__buf_2
*I *147:Y O *D sky130_fd_sc_hd__xnor2_1
*CAP
1 *173:A 0.00146473
2 *147:Y 0.00146473
3 *173:A *148:A1 0.000536491
4 *173:A *177:A 0
5 *173:A *179:A 0
6 *146:B *173:A 9.14049e-05
7 *151:A *173:A 0
8 *154:B *173:A 0
9 *155:B *173:A 0
10 *158:B *173:A 0.000112971
11 *163:A *173:A 0.000519815
12 *29:44 *173:A 0.000432198
*RES
1 *147:Y *173:A 36.03 
*END

*D_NET *32 0.00199261
*CONN
*I *174:A I *D sky130_fd_sc_hd__buf_2
*I *151:X O *D sky130_fd_sc_hd__clkbuf_1
*CAP
1 *174:A 0.000678507
2 *151:X 0.000678507
3 *174:A *175:A 0.000524531
4 *174:A *179:A 0
5 out[3] *174:A 6.06899e-05
6 out[4] *174:A 1.17114e-05
7 out[5] *174:A 3.86607e-05
*RES
1 *151:X *174:A 20.265 
*END

*D_NET *33 0.00251829
*CONN
*I *175:A I *D sky130_fd_sc_hd__buf_2
*I *154:Y O *D sky130_fd_sc_hd__nor2_1
*CAP
1 *175:A 0.000864652
2 *154:Y 0.000864652
3 *175:A *179:A 0.000264459
4 *174:A *175:A 0.000524531
*RES
1 *154:Y *175:A 21.465 
*END

*D_NET *34 0.00126815
*CONN
*I *176:A I *D sky130_fd_sc_hd__buf_2
*I *155:Y O *D sky130_fd_sc_hd__xnor2_1
*CAP
1 *176:A 0.000508952
2 *155:Y 0.000508952
3 *176:A *177:A 0.000120562
4 *154:A *176:A 0
5 *155:B *176:A 0
6 *163:A *176:A 0.000129678
*RES
1 *155:Y *176:A 16.155 
*END

*D_NET *35 0.00243549
*CONN
*I *177:A I *D sky130_fd_sc_hd__buf_2
*I *159:X O *D sky130_fd_sc_hd__clkbuf_1
*CAP
1 *177:A 0.00101717
2 *159:X 0.00101717
3 *177:A *178:A 0
4 *177:A *179:A 4.49328e-05
5 *151:A *177:A 0.000141592
6 *159:A *177:A 9.40533e-05
7 *173:A *177:A 0
8 *176:A *177:A 0.000120562
*RES
1 *159:X *177:A 21.405 
*END

*D_NET *36 0.00221472
*CONN
*I *178:A I *D sky130_fd_sc_hd__clkbuf_4
*I *160:X O *D sky130_fd_sc_hd__xor2_1
*CAP
1 *178:A 0.000944613
2 *160:X 0.000944613
3 *178:A *155:A 0.000137063
4 *155:B *178:A 3.00381e-05
5 *163:A *178:A 0.000158394
6 *177:A *178:A 0
*RES
1 *160:X *178:A 19.29 
*END

*D_NET *37 0.00567209
*CONN
*I *146:A I *D sky130_fd_sc_hd__nor2_1
*I *148:A1 I *D sky130_fd_sc_hd__o31a_1
*I *161:A I *D sky130_fd_sc_hd__and2_1
*I *149:A I *D sky130_fd_sc_hd__or4_2
*I *165:X O *D sky130_fd_sc_hd__buf_1
*CAP
1 *146:A 0.000103831
2 *148:A1 0.000233574
3 *161:A 0
4 *149:A 9.41442e-05
5 *165:X 0.000348304
6 *37:34 0.000533177
7 *37:27 0.000226339
8 *37:12 0.000473016
9 *148:A1 *179:A 0
10 *149:A *149:D 4.77719e-05
11 *149:A *40:27 9.78798e-05
12 *37:12 *156:B 3.76596e-05
13 *37:12 *156:C 0.000183043
14 *37:27 *153:A 2.10214e-05
15 *37:34 *153:A 0.000198151
16 *146:B *146:A 0.000245829
17 *146:B *37:34 8.23457e-05
18 *150:A_N *148:A1 0.000272994
19 *151:A *148:A1 0
20 *156:D *149:A 2.49909e-05
21 *162:A *37:12 0.00070139
22 *173:A *148:A1 0.000536491
23 *19:8 *37:12 0.000232098
24 *19:8 *37:27 6.21932e-05
25 *19:8 *37:34 0.000271347
26 *21:36 *149:A 5.04569e-05
27 *29:18 *37:12 0.000452765
28 *29:18 *37:27 4.77757e-05
29 *29:31 *149:A 5.71481e-05
30 *29:31 *37:27 3.6355e-05
*RES
1 *165:X *37:12 17.51 
2 *37:12 *149:A 8.195 
3 *37:12 *37:27 1.14 
4 *37:27 *161:A 1.6 
5 *37:27 *37:34 5.28 
6 *37:34 *148:A1 12.275 
7 *37:34 *146:A 4.135 
*END

*D_NET *38 0.00492142
*CONN
*I *149:C I *D sky130_fd_sc_hd__or4_2
*I *148:A3 I *D sky130_fd_sc_hd__o31a_1
*I *147:A I *D sky130_fd_sc_hd__xnor2_1
*I *166:X O *D sky130_fd_sc_hd__buf_1
*CAP
1 *149:C 3.10522e-05
2 *148:A3 0.000425827
3 *147:A 0.000531402
4 *166:X 0.00063675
5 *38:12 0.00114094
6 *38:10 0.00085151
7 *147:A *155:A 0
8 *147:A *42:8 0
9 *148:A3 *148:B1 0.000184858
10 *149:C *149:D 2.75229e-05
11 *38:10 *156:A 0.000145453
12 *38:10 *156:B 0
13 *38:10 *40:27 0.000194788
14 *38:12 *156:B 0
15 *38:12 *40:27 0.000179068
16 *147:B *147:A 4.82919e-05
17 *152:B *147:A 0.000213171
18 *152:B *38:12 6.89789e-05
19 *156:D *149:C 8.40269e-05
20 *162:B *38:10 0.000151145
21 *171:A *147:A 0
22 *21:12 *38:12 6.64038e-06
*RES
1 *166:X *38:10 13.965 
2 *38:10 *38:12 3.93 
3 *38:12 *147:A 13.17 
4 *38:12 *148:A3 9.915 
5 *38:10 *149:C 4.395 
*END

*D_NET *39 0.00350682
*CONN
*I *149:D I *D sky130_fd_sc_hd__or4_2
*I *148:B1 I *D sky130_fd_sc_hd__o31a_1
*I *167:X O *D sky130_fd_sc_hd__clkbuf_1
*CAP
1 *149:D 0.000163349
2 *148:B1 0.000228945
3 *167:X 0.0003542
4 *39:12 0.000746494
5 *148:A3 *148:B1 0.000184858
6 *149:A *149:D 4.77719e-05
7 *149:C *149:D 2.75229e-05
8 *150:A_N *149:D 4.82863e-05
9 *154:A *148:B1 0.000315139
10 *154:A *39:12 0.000372579
11 *156:D *149:D 1.09281e-05
12 *158:A *39:12 0.000341324
13 *159:A *148:B1 0.00017584
14 *159:A *39:12 0.000270709
15 *162:B *39:12 0
16 *21:6 *149:D 8.4841e-05
17 *21:12 *149:D 8.3874e-05
18 *21:51 *149:D 5.01585e-05
*RES
1 *167:X *39:12 12.3 
2 *39:12 *148:B1 10.14 
3 *39:12 *149:D 6.93 
*END

*D_NET *40 0.00505512
*CONN
*I *157:A1 I *D sky130_fd_sc_hd__o31ai_1
*I *156:A I *D sky130_fd_sc_hd__or4_1
*I *153:A I *D sky130_fd_sc_hd__and2_1
*I *152:A I *D sky130_fd_sc_hd__nor2_1
*I *168:X O *D sky130_fd_sc_hd__buf_1
*CAP
1 *157:A1 5.20958e-05
2 *156:A 0.00024285
3 *153:A 0.00030604
4 *152:A 0.000284206
5 *168:X 5.87046e-05
6 *40:27 0.000693706
7 *40:23 0.000284307
8 *40:6 0.000430306
9 *152:A *155:A 0.000256998
10 *152:A *156:B 2.92496e-05
11 *152:A *41:23 0.000250609
12 *157:A1 *157:A2 4.76536e-05
13 *40:6 *157:A2 4.66108e-05
14 *40:6 *157:B1 6.71882e-05
15 *40:23 *157:A2 0.000231721
16 *40:23 *157:B1 0.000113007
17 *149:A *40:27 9.78798e-05
18 *158:A *156:A 0.000168012
19 *158:B *157:A1 9.00151e-05
20 *159:A *156:A 0
21 *162:B *156:A 0.000136877
22 *167:A *156:A 0.000127866
23 *21:12 *40:27 0.000116165
24 *21:36 *40:27 1.32017e-05
25 *29:18 *153:A 0.000123592
26 *29:31 *153:A 4.77719e-05
27 *37:27 *153:A 2.10214e-05
28 *37:34 *153:A 0.000198151
29 *38:10 *156:A 0.000145453
30 *38:10 *40:27 0.000194788
31 *38:12 *40:27 0.000179068
*RES
1 *168:X *40:6 2.74 
2 *40:6 *152:A 12.02 
3 *40:6 *40:23 2.79 
4 *40:23 *40:27 6.44 
5 *40:27 *153:A 8.895 
6 *40:27 *156:A 9.06 
7 *40:23 *157:A1 3.085 
*END

*D_NET *41 0.00481075
*CONN
*I *156:B I *D sky130_fd_sc_hd__or4_1
*I *157:A2 I *D sky130_fd_sc_hd__o31ai_1
*I *155:A I *D sky130_fd_sc_hd__xnor2_1
*I *169:X O *D sky130_fd_sc_hd__buf_1
*CAP
1 *156:B 0.000241391
2 *157:A2 0.000273794
3 *155:A 0.000534971
4 *169:X 7.91457e-05
5 *41:23 0.000584638
6 *41:8 0.00068357
7 *155:A *160:A 4.77757e-05
8 *155:A *42:8 0.000221461
9 *156:B *156:C 0.000510123
10 *156:B *42:8 3.57846e-05
11 *41:23 *42:8 0.000136406
12 *147:A *155:A 0
13 *152:A *155:A 0.000256998
14 *152:A *156:B 2.92496e-05
15 *152:A *41:23 0.000250609
16 *155:B *155:A 2.75229e-05
17 *156:D *156:B 0.000291358
18 *157:A1 *157:A2 4.76536e-05
19 *160:B *155:A 4.36847e-05
20 *178:A *155:A 0.000137063
21 *29:18 *156:B 6.15563e-05
22 *37:12 *156:B 3.76596e-05
23 *38:10 *156:B 0
24 *38:12 *156:B 0
25 *40:6 *157:A2 4.66108e-05
26 *40:23 *157:A2 0.000231721
*RES
1 *169:X *41:8 4.395 
2 *41:8 *155:A 14.715 
3 *41:8 *41:23 2.91 
4 *41:23 *157:A2 7.4475 
5 *41:23 *156:B 11.1 
*END

*D_NET *42 0.00347916
*CONN
*I *156:C I *D sky130_fd_sc_hd__or4_1
*I *157:B1 I *D sky130_fd_sc_hd__o31ai_1
*I *170:X O *D sky130_fd_sc_hd__clkbuf_1
*CAP
1 *156:C 0.000174925
2 *157:B1 0.000151408
3 *170:X 0.00022527
4 *42:8 0.000551603
5 *42:8 *160:A 5.63405e-05
6 *147:A *42:8 0
7 *147:B *156:C 0.000166998
8 *147:B *42:8 0.000860601
9 *155:A *42:8 0.000221461
10 *156:B *156:C 0.000510123
11 *156:B *42:8 3.57846e-05
12 *162:A *156:C 2.50049e-05
13 *37:12 *156:C 0.000183043
14 *40:6 *157:B1 6.71882e-05
15 *40:23 *157:B1 0.000113007
16 *41:23 *42:8 0.000136406
*RES
1 *170:X *42:8 13.395 
2 *42:8 *157:B1 6.465 
3 *42:8 *156:C 10.125 
*END

*D_NET *43 0.000337959
*CONN
*I *160:A I *D sky130_fd_sc_hd__xor2_1
*I *171:X O *D sky130_fd_sc_hd__clkbuf_1
*CAP
1 *160:A 9.30333e-05
2 *171:X 9.30333e-05
3 *155:A *160:A 4.77757e-05
4 *160:B *160:A 4.77757e-05
5 *42:8 *160:A 5.63405e-05
*RES
1 *171:X *160:A 9.285 
*END

*D_NET *44 0.0028645
*CONN
*I *179:A I *D sky130_fd_sc_hd__buf_2
*I *163:X O *D sky130_fd_sc_hd__clkbuf_1
*CAP
1 *179:A 0.00108612
2 *163:X 0.00108612
3 out[2] *179:A 0
4 out[5] *179:A 0
5 *148:A1 *179:A 0
6 *151:A *179:A 0.000382863
7 *172:A *179:A 0
8 *173:A *179:A 0
9 *174:A *179:A 0
10 *175:A *179:A 0.000264459
11 *177:A *179:A 4.49328e-05
*RES
1 *163:X *179:A 28.98 
*END
