*SPEF "ieee 1481-1999"
*DESIGN "alu"
*DATE "14:14:35 Monday April 21, 2025"
*VENDOR "The OpenROAD Project"
*PROGRAM "OpenROAD"
*VERSION "b16bda7e82721d10566ff7e2b68f1ff0be9f9e38"
*DESIGN_FLOW "NAME_SCOPE LOCAL" "PIN_CAP NONE"
*DIVIDER /
*DELIMITER :
*BUS_DELIMITER []
*T_UNIT 1 NS
*C_UNIT 1 PF
*R_UNIT 1 OHM
*L_UNIT 1 HENRY

*NAME_MAP
*1 A[0]
*2 A[1]
*3 A[2]
*4 A[3]
*5 A[4]
*6 A[5]
*7 A[6]
*8 A[7]
*9 B[0]
*10 B[1]
*11 B[2]
*12 B[3]
*13 B[4]
*14 B[5]
*15 B[6]
*16 B[7]
*19 opcode[0]
*20 opcode[1]
*21 opcode[2]
*22 out[0]
*23 out[1]
*24 out[2]
*25 out[3]
*26 out[4]
*27 out[5]
*28 out[6]
*29 out[7]
*30 _000_
*31 _001_
*32 _002_
*33 _003_
*34 _004_
*35 _005_
*36 _006_
*37 _007_
*38 _008_
*39 _009_
*40 _010_
*41 _011_
*42 _012_
*43 _013_
*44 _014_
*45 _015_
*46 _016_
*47 _017_
*48 _018_
*49 _019_
*50 _020_
*51 _021_
*52 _022_
*53 _023_
*54 _024_
*55 _025_
*56 _026_
*57 _027_
*58 _028_
*59 _029_
*60 _030_
*61 _031_
*62 _032_
*63 _033_
*64 _034_
*65 _035_
*66 _036_
*67 _037_
*68 _038_
*69 _039_
*70 _040_
*71 _041_
*72 _042_
*73 _043_
*74 _044_
*75 _045_
*76 _046_
*77 _047_
*78 _048_
*79 _049_
*80 _050_
*81 _051_
*82 _052_
*83 _053_
*84 _054_
*85 _055_
*86 _056_
*87 _057_
*88 _058_
*89 _059_
*90 _060_
*91 _061_
*92 _062_
*93 _063_
*94 _064_
*95 _065_
*96 _066_
*97 _067_
*98 _068_
*99 _069_
*100 _070_
*101 _071_
*102 _072_
*103 _073_
*104 _074_
*105 _075_
*106 _076_
*107 _077_
*108 _078_
*109 _079_
*110 _080_
*111 _081_
*112 _082_
*113 _083_
*114 _084_
*115 _085_
*116 _086_
*117 _087_
*118 _088_
*119 _089_
*120 _090_
*121 _091_
*122 _092_
*123 _093_
*124 _094_
*125 _095_
*126 _096_
*127 _097_
*128 _098_
*129 _099_
*130 _100_
*131 _101_
*132 _102_
*133 _103_
*134 _104_
*135 _105_
*136 _106_
*137 _107_
*138 _108_
*139 _109_
*140 _110_
*141 _111_
*142 _112_
*143 _113_
*144 _114_
*145 _115_
*146 _116_
*147 _117_
*148 _118_
*149 _119_
*150 _120_
*151 _121_
*152 _122_
*153 _123_
*154 _124_
*155 _125_
*156 _126_
*157 _127_
*158 _128_
*159 _129_
*160 _130_
*161 _131_
*162 _132_
*163 _133_
*164 _134_
*165 _135_
*166 _136_
*167 _137_
*168 _138_
*169 _139_
*170 _140_
*171 _141_
*172 _142_
*173 _143_
*174 _144_
*175 _145_
*176 _146_
*177 _147_
*178 _148_
*179 _149_
*180 _150_
*181 _151_
*182 _152_
*183 _153_
*184 _154_
*185 _155_
*186 _156_
*187 _157_
*188 _158_
*189 _159_
*190 _160_
*191 _161_
*192 _162_
*193 _163_
*194 _164_
*195 _165_
*196 _166_
*197 _167_
*198 _168_
*199 _169_
*200 _170_
*201 _171_
*202 _172_
*203 _173_
*204 _174_
*205 _175_
*206 _176_
*207 _177_
*208 _178_
*209 _179_
*210 _180_
*211 _181_
*212 _182_
*213 _183_
*214 _184_
*215 _185_
*216 _186_
*217 _187_
*218 _188_
*219 _189_
*220 _190_
*221 _191_
*222 _192_
*223 _193_
*224 _194_
*225 _195_
*226 _196_
*227 _197_
*228 _198_
*229 _199_
*230 _200_
*231 _201_
*232 _202_
*233 _203_
*234 _204_
*235 _205_
*236 _206_
*237 _207_
*238 _208_
*239 _209_
*240 _210_
*241 _211_
*242 _212_
*243 _213_
*244 _214_
*245 _215_
*246 _216_
*247 _217_
*248 _218_
*249 _219_
*250 _220_
*251 _221_
*252 _222_
*253 _223_
*254 _224_
*255 _225_
*256 _226_
*257 _227_
*258 _228_
*259 _229_
*260 _230_
*261 _231_
*262 _232_
*263 _233_
*264 _234_
*265 _235_
*266 _236_
*267 _237_
*268 _238_
*269 _239_
*270 _240_
*271 _241_
*272 _242_
*273 _243_
*274 _244_
*275 _245_
*276 _246_
*277 _247_
*278 net1
*279 net10
*280 net11
*281 net12
*282 net13
*283 net14
*284 net15
*285 net16
*286 net17
*287 net18
*288 net19
*289 net2
*290 net20
*291 net21
*292 net22
*293 net23
*294 net24
*295 net25
*296 net26
*297 net27
*298 net28
*299 net29
*300 net3
*301 net30
*302 net31
*303 net32
*304 net33
*305 net34
*306 net35
*307 net36
*308 net37
*309 net38
*310 net39
*311 net4
*312 net40
*313 net41
*314 net42
*315 net43
*316 net44
*317 net45
*318 net46
*319 net47
*320 net48
*321 net49
*322 net5
*323 net50
*324 net51
*325 net52
*326 net53
*327 net6
*328 net7
*329 net8
*330 net9
*331 ANTENNA_1
*332 ANTENNA_10
*333 ANTENNA_11
*334 ANTENNA_12
*335 ANTENNA_13
*336 ANTENNA_14
*337 ANTENNA_15
*338 ANTENNA_16
*339 ANTENNA_17
*340 ANTENNA_18
*341 ANTENNA_19
*342 ANTENNA_2
*343 ANTENNA_20
*344 ANTENNA_21
*345 ANTENNA_22
*346 ANTENNA_23
*347 ANTENNA_24
*348 ANTENNA_25
*349 ANTENNA_26
*350 ANTENNA_27
*351 ANTENNA_28
*352 ANTENNA_29
*353 ANTENNA_3
*354 ANTENNA_30
*355 ANTENNA_31
*356 ANTENNA_4
*357 ANTENNA_5
*358 ANTENNA_6
*359 ANTENNA_7
*360 ANTENNA_8
*361 ANTENNA_9
*362 FILLER_0_0_109
*363 FILLER_0_0_113
*364 FILLER_0_0_125
*365 FILLER_0_0_137
*366 FILLER_0_0_141
*367 FILLER_0_0_15
*368 FILLER_0_0_153
*369 FILLER_0_0_165
*370 FILLER_0_0_169
*371 FILLER_0_0_181
*372 FILLER_0_0_193
*373 FILLER_0_0_202
*374 FILLER_0_0_214
*375 FILLER_0_0_222
*376 FILLER_0_0_225
*377 FILLER_0_0_237
*378 FILLER_0_0_249
*379 FILLER_0_0_253
*380 FILLER_0_0_265
*381 FILLER_0_0_27
*382 FILLER_0_0_277
*383 FILLER_0_0_281
*384 FILLER_0_0_29
*385 FILLER_0_0_293
*386 FILLER_0_0_3
*387 FILLER_0_0_305
*388 FILLER_0_0_309
*389 FILLER_0_0_317
*390 FILLER_0_0_326
*391 FILLER_0_0_334
*392 FILLER_0_0_337
*393 FILLER_0_0_349
*394 FILLER_0_0_361
*395 FILLER_0_0_365
*396 FILLER_0_0_377
*397 FILLER_0_0_389
*398 FILLER_0_0_393
*399 FILLER_0_0_405
*400 FILLER_0_0_41
*401 FILLER_0_0_53
*402 FILLER_0_0_57
*403 FILLER_0_0_69
*404 FILLER_0_0_81
*405 FILLER_0_0_85
*406 FILLER_0_0_97
*407 FILLER_0_10_109
*408 FILLER_0_10_121
*409 FILLER_0_10_133
*410 FILLER_0_10_139
*411 FILLER_0_10_141
*412 FILLER_0_10_15
*413 FILLER_0_10_153
*414 FILLER_0_10_165
*415 FILLER_0_10_177
*416 FILLER_0_10_189
*417 FILLER_0_10_195
*418 FILLER_0_10_203
*419 FILLER_0_10_215
*420 FILLER_0_10_227
*421 FILLER_0_10_239
*422 FILLER_0_10_251
*423 FILLER_0_10_253
*424 FILLER_0_10_265
*425 FILLER_0_10_27
*426 FILLER_0_10_277
*427 FILLER_0_10_285
*428 FILLER_0_10_29
*429 FILLER_0_10_3
*430 FILLER_0_10_326
*431 FILLER_0_10_338
*432 FILLER_0_10_350
*433 FILLER_0_10_362
*434 FILLER_0_10_365
*435 FILLER_0_10_377
*436 FILLER_0_10_389
*437 FILLER_0_10_397
*438 FILLER_0_10_41
*439 FILLER_0_10_53
*440 FILLER_0_10_65
*441 FILLER_0_10_77
*442 FILLER_0_10_83
*443 FILLER_0_10_85
*444 FILLER_0_10_97
*445 FILLER_0_11_105
*446 FILLER_0_11_111
*447 FILLER_0_11_113
*448 FILLER_0_11_125
*449 FILLER_0_11_137
*450 FILLER_0_11_149
*451 FILLER_0_11_15
*452 FILLER_0_11_161
*453 FILLER_0_11_167
*454 FILLER_0_11_169
*455 FILLER_0_11_181
*456 FILLER_0_11_193
*457 FILLER_0_11_205
*458 FILLER_0_11_217
*459 FILLER_0_11_223
*460 FILLER_0_11_234
*461 FILLER_0_11_246
*462 FILLER_0_11_258
*463 FILLER_0_11_27
*464 FILLER_0_11_270
*465 FILLER_0_11_278
*466 FILLER_0_11_281
*467 FILLER_0_11_293
*468 FILLER_0_11_3
*469 FILLER_0_11_305
*470 FILLER_0_11_317
*471 FILLER_0_11_329
*472 FILLER_0_11_335
*473 FILLER_0_11_337
*474 FILLER_0_11_349
*475 FILLER_0_11_361
*476 FILLER_0_11_385
*477 FILLER_0_11_39
*478 FILLER_0_11_391
*479 FILLER_0_11_393
*480 FILLER_0_11_405
*481 FILLER_0_11_51
*482 FILLER_0_11_55
*483 FILLER_0_11_57
*484 FILLER_0_11_69
*485 FILLER_0_11_81
*486 FILLER_0_11_93
*487 FILLER_0_12_109
*488 FILLER_0_12_12
*489 FILLER_0_12_121
*490 FILLER_0_12_133
*491 FILLER_0_12_139
*492 FILLER_0_12_155
*493 FILLER_0_12_167
*494 FILLER_0_12_179
*495 FILLER_0_12_191
*496 FILLER_0_12_195
*497 FILLER_0_12_197
*498 FILLER_0_12_209
*499 FILLER_0_12_221
*500 FILLER_0_12_233
*501 FILLER_0_12_24
*502 FILLER_0_12_245
*503 FILLER_0_12_251
*504 FILLER_0_12_253
*505 FILLER_0_12_265
*506 FILLER_0_12_277
*507 FILLER_0_12_289
*508 FILLER_0_12_29
*509 FILLER_0_12_301
*510 FILLER_0_12_307
*511 FILLER_0_12_309
*512 FILLER_0_12_321
*513 FILLER_0_12_333
*514 FILLER_0_12_345
*515 FILLER_0_12_357
*516 FILLER_0_12_363
*517 FILLER_0_12_365
*518 FILLER_0_12_377
*519 FILLER_0_12_389
*520 FILLER_0_12_401
*521 FILLER_0_12_41
*522 FILLER_0_12_49
*523 FILLER_0_12_64
*524 FILLER_0_12_76
*525 FILLER_0_12_85
*526 FILLER_0_12_97
*527 FILLER_0_13_103
*528 FILLER_0_13_111
*529 FILLER_0_13_113
*530 FILLER_0_13_125
*531 FILLER_0_13_137
*532 FILLER_0_13_145
*533 FILLER_0_13_15
*534 FILLER_0_13_156
*535 FILLER_0_13_169
*536 FILLER_0_13_181
*537 FILLER_0_13_193
*538 FILLER_0_13_205
*539 FILLER_0_13_217
*540 FILLER_0_13_223
*541 FILLER_0_13_225
*542 FILLER_0_13_237
*543 FILLER_0_13_249
*544 FILLER_0_13_259
*545 FILLER_0_13_27
*546 FILLER_0_13_271
*547 FILLER_0_13_279
*548 FILLER_0_13_281
*549 FILLER_0_13_293
*550 FILLER_0_13_3
*551 FILLER_0_13_305
*552 FILLER_0_13_317
*553 FILLER_0_13_329
*554 FILLER_0_13_335
*555 FILLER_0_13_337
*556 FILLER_0_13_349
*557 FILLER_0_13_361
*558 FILLER_0_13_373
*559 FILLER_0_13_39
*560 FILLER_0_13_393
*561 FILLER_0_13_401
*562 FILLER_0_13_405
*563 FILLER_0_13_51
*564 FILLER_0_13_55
*565 FILLER_0_13_70
*566 FILLER_0_13_82
*567 FILLER_0_13_91
*568 FILLER_0_14_109
*569 FILLER_0_14_121
*570 FILLER_0_14_133
*571 FILLER_0_14_139
*572 FILLER_0_14_141
*573 FILLER_0_14_15
*574 FILLER_0_14_153
*575 FILLER_0_14_165
*576 FILLER_0_14_173
*577 FILLER_0_14_179
*578 FILLER_0_14_191
*579 FILLER_0_14_195
*580 FILLER_0_14_197
*581 FILLER_0_14_209
*582 FILLER_0_14_221
*583 FILLER_0_14_233
*584 FILLER_0_14_245
*585 FILLER_0_14_251
*586 FILLER_0_14_253
*587 FILLER_0_14_265
*588 FILLER_0_14_27
*589 FILLER_0_14_277
*590 FILLER_0_14_29
*591 FILLER_0_14_290
*592 FILLER_0_14_3
*593 FILLER_0_14_302
*594 FILLER_0_14_309
*595 FILLER_0_14_321
*596 FILLER_0_14_333
*597 FILLER_0_14_337
*598 FILLER_0_14_347
*599 FILLER_0_14_359
*600 FILLER_0_14_363
*601 FILLER_0_14_365
*602 FILLER_0_14_377
*603 FILLER_0_14_389
*604 FILLER_0_14_401
*605 FILLER_0_14_41
*606 FILLER_0_14_53
*607 FILLER_0_14_65
*608 FILLER_0_14_77
*609 FILLER_0_14_83
*610 FILLER_0_14_85
*611 FILLER_0_14_97
*612 FILLER_0_15_105
*613 FILLER_0_15_111
*614 FILLER_0_15_113
*615 FILLER_0_15_12
*616 FILLER_0_15_125
*617 FILLER_0_15_137
*618 FILLER_0_15_145
*619 FILLER_0_15_158
*620 FILLER_0_15_166
*621 FILLER_0_15_169
*622 FILLER_0_15_181
*623 FILLER_0_15_193
*624 FILLER_0_15_205
*625 FILLER_0_15_217
*626 FILLER_0_15_223
*627 FILLER_0_15_225
*628 FILLER_0_15_237
*629 FILLER_0_15_24
*630 FILLER_0_15_249
*631 FILLER_0_15_261
*632 FILLER_0_15_273
*633 FILLER_0_15_279
*634 FILLER_0_15_281
*635 FILLER_0_15_293
*636 FILLER_0_15_305
*637 FILLER_0_15_317
*638 FILLER_0_15_329
*639 FILLER_0_15_335
*640 FILLER_0_15_337
*641 FILLER_0_15_349
*642 FILLER_0_15_36
*643 FILLER_0_15_361
*644 FILLER_0_15_373
*645 FILLER_0_15_385
*646 FILLER_0_15_391
*647 FILLER_0_15_393
*648 FILLER_0_15_405
*649 FILLER_0_15_48
*650 FILLER_0_15_57
*651 FILLER_0_15_69
*652 FILLER_0_15_81
*653 FILLER_0_15_93
*654 FILLER_0_16_109
*655 FILLER_0_16_121
*656 FILLER_0_16_133
*657 FILLER_0_16_139
*658 FILLER_0_16_15
*659 FILLER_0_16_170
*660 FILLER_0_16_177
*661 FILLER_0_16_189
*662 FILLER_0_16_194
*663 FILLER_0_16_202
*664 FILLER_0_16_206
*665 FILLER_0_16_210
*666 FILLER_0_16_222
*667 FILLER_0_16_234
*668 FILLER_0_16_253
*669 FILLER_0_16_257
*670 FILLER_0_16_262
*671 FILLER_0_16_27
*672 FILLER_0_16_274
*673 FILLER_0_16_286
*674 FILLER_0_16_29
*675 FILLER_0_16_298
*676 FILLER_0_16_3
*677 FILLER_0_16_306
*678 FILLER_0_16_309
*679 FILLER_0_16_321
*680 FILLER_0_16_327
*681 FILLER_0_16_340
*682 FILLER_0_16_345
*683 FILLER_0_16_351
*684 FILLER_0_16_363
*685 FILLER_0_16_365
*686 FILLER_0_16_377
*687 FILLER_0_16_389
*688 FILLER_0_16_401
*689 FILLER_0_16_41
*690 FILLER_0_16_53
*691 FILLER_0_16_65
*692 FILLER_0_16_77
*693 FILLER_0_16_83
*694 FILLER_0_16_85
*695 FILLER_0_16_97
*696 FILLER_0_17_103
*697 FILLER_0_17_111
*698 FILLER_0_17_113
*699 FILLER_0_17_125
*700 FILLER_0_17_137
*701 FILLER_0_17_149
*702 FILLER_0_17_15
*703 FILLER_0_17_155
*704 FILLER_0_17_166
*705 FILLER_0_17_169
*706 FILLER_0_17_181
*707 FILLER_0_17_193
*708 FILLER_0_17_205
*709 FILLER_0_17_217
*710 FILLER_0_17_223
*711 FILLER_0_17_225
*712 FILLER_0_17_237
*713 FILLER_0_17_249
*714 FILLER_0_17_261
*715 FILLER_0_17_27
*716 FILLER_0_17_273
*717 FILLER_0_17_279
*718 FILLER_0_17_281
*719 FILLER_0_17_293
*720 FILLER_0_17_3
*721 FILLER_0_17_305
*722 FILLER_0_17_317
*723 FILLER_0_17_329
*724 FILLER_0_17_335
*725 FILLER_0_17_337
*726 FILLER_0_17_349
*727 FILLER_0_17_368
*728 FILLER_0_17_380
*729 FILLER_0_17_39
*730 FILLER_0_17_393
*731 FILLER_0_17_405
*732 FILLER_0_17_51
*733 FILLER_0_17_55
*734 FILLER_0_17_57
*735 FILLER_0_17_69
*736 FILLER_0_17_81
*737 FILLER_0_17_91
*738 FILLER_0_18_109
*739 FILLER_0_18_121
*740 FILLER_0_18_133
*741 FILLER_0_18_139
*742 FILLER_0_18_141
*743 FILLER_0_18_149
*744 FILLER_0_18_15
*745 FILLER_0_18_173
*746 FILLER_0_18_185
*747 FILLER_0_18_193
*748 FILLER_0_18_197
*749 FILLER_0_18_209
*750 FILLER_0_18_221
*751 FILLER_0_18_233
*752 FILLER_0_18_245
*753 FILLER_0_18_251
*754 FILLER_0_18_253
*755 FILLER_0_18_265
*756 FILLER_0_18_27
*757 FILLER_0_18_277
*758 FILLER_0_18_289
*759 FILLER_0_18_29
*760 FILLER_0_18_3
*761 FILLER_0_18_301
*762 FILLER_0_18_307
*763 FILLER_0_18_309
*764 FILLER_0_18_321
*765 FILLER_0_18_333
*766 FILLER_0_18_345
*767 FILLER_0_18_357
*768 FILLER_0_18_363
*769 FILLER_0_18_365
*770 FILLER_0_18_377
*771 FILLER_0_18_389
*772 FILLER_0_18_401
*773 FILLER_0_18_41
*774 FILLER_0_18_53
*775 FILLER_0_18_65
*776 FILLER_0_18_77
*777 FILLER_0_18_83
*778 FILLER_0_18_85
*779 FILLER_0_18_97
*780 FILLER_0_19_105
*781 FILLER_0_19_111
*782 FILLER_0_19_113
*783 FILLER_0_19_125
*784 FILLER_0_19_136
*785 FILLER_0_19_14
*786 FILLER_0_19_148
*787 FILLER_0_19_160
*788 FILLER_0_19_169
*789 FILLER_0_19_181
*790 FILLER_0_19_193
*791 FILLER_0_19_205
*792 FILLER_0_19_217
*793 FILLER_0_19_223
*794 FILLER_0_19_242
*795 FILLER_0_19_254
*796 FILLER_0_19_26
*797 FILLER_0_19_266
*798 FILLER_0_19_278
*799 FILLER_0_19_281
*800 FILLER_0_19_293
*801 FILLER_0_19_305
*802 FILLER_0_19_317
*803 FILLER_0_19_329
*804 FILLER_0_19_335
*805 FILLER_0_19_346
*806 FILLER_0_19_358
*807 FILLER_0_19_361
*808 FILLER_0_19_368
*809 FILLER_0_19_38
*810 FILLER_0_19_380
*811 FILLER_0_19_393
*812 FILLER_0_19_401
*813 FILLER_0_19_50
*814 FILLER_0_19_57
*815 FILLER_0_19_69
*816 FILLER_0_19_81
*817 FILLER_0_19_93
*818 FILLER_0_1_105
*819 FILLER_0_1_111
*820 FILLER_0_1_113
*821 FILLER_0_1_125
*822 FILLER_0_1_137
*823 FILLER_0_1_149
*824 FILLER_0_1_161
*825 FILLER_0_1_167
*826 FILLER_0_1_169
*827 FILLER_0_1_181
*828 FILLER_0_1_193
*829 FILLER_0_1_205
*830 FILLER_0_1_21
*831 FILLER_0_1_217
*832 FILLER_0_1_223
*833 FILLER_0_1_225
*834 FILLER_0_1_257
*835 FILLER_0_1_269
*836 FILLER_0_1_277
*837 FILLER_0_1_281
*838 FILLER_0_1_302
*839 FILLER_0_1_33
*840 FILLER_0_1_330
*841 FILLER_0_1_337
*842 FILLER_0_1_345
*843 FILLER_0_1_386
*844 FILLER_0_1_393
*845 FILLER_0_1_45
*846 FILLER_0_1_53
*847 FILLER_0_1_57
*848 FILLER_0_1_69
*849 FILLER_0_1_81
*850 FILLER_0_1_9
*851 FILLER_0_1_93
*852 FILLER_0_20_109
*853 FILLER_0_20_121
*854 FILLER_0_20_133
*855 FILLER_0_20_139
*856 FILLER_0_20_141
*857 FILLER_0_20_153
*858 FILLER_0_20_165
*859 FILLER_0_20_17
*860 FILLER_0_20_177
*861 FILLER_0_20_189
*862 FILLER_0_20_195
*863 FILLER_0_20_204
*864 FILLER_0_20_216
*865 FILLER_0_20_228
*866 FILLER_0_20_240
*867 FILLER_0_20_25
*868 FILLER_0_20_253
*869 FILLER_0_20_261
*870 FILLER_0_20_276
*871 FILLER_0_20_288
*872 FILLER_0_20_29
*873 FILLER_0_20_3
*874 FILLER_0_20_300
*875 FILLER_0_20_309
*876 FILLER_0_20_321
*877 FILLER_0_20_333
*878 FILLER_0_20_345
*879 FILLER_0_20_357
*880 FILLER_0_20_363
*881 FILLER_0_20_377
*882 FILLER_0_20_389
*883 FILLER_0_20_401
*884 FILLER_0_20_41
*885 FILLER_0_20_53
*886 FILLER_0_20_65
*887 FILLER_0_20_7
*888 FILLER_0_20_77
*889 FILLER_0_20_83
*890 FILLER_0_20_85
*891 FILLER_0_20_97
*892 FILLER_0_21_105
*893 FILLER_0_21_11
*894 FILLER_0_21_111
*895 FILLER_0_21_113
*896 FILLER_0_21_125
*897 FILLER_0_21_137
*898 FILLER_0_21_149
*899 FILLER_0_21_161
*900 FILLER_0_21_167
*901 FILLER_0_21_169
*902 FILLER_0_21_181
*903 FILLER_0_21_19
*904 FILLER_0_21_193
*905 FILLER_0_21_205
*906 FILLER_0_21_217
*907 FILLER_0_21_223
*908 FILLER_0_21_225
*909 FILLER_0_21_237
*910 FILLER_0_21_249
*911 FILLER_0_21_261
*912 FILLER_0_21_273
*913 FILLER_0_21_279
*914 FILLER_0_21_290
*915 FILLER_0_21_296
*916 FILLER_0_21_3
*917 FILLER_0_21_308
*918 FILLER_0_21_31
*919 FILLER_0_21_320
*920 FILLER_0_21_332
*921 FILLER_0_21_337
*922 FILLER_0_21_349
*923 FILLER_0_21_361
*924 FILLER_0_21_373
*925 FILLER_0_21_385
*926 FILLER_0_21_39
*927 FILLER_0_21_391
*928 FILLER_0_21_393
*929 FILLER_0_21_405
*930 FILLER_0_21_47
*931 FILLER_0_21_55
*932 FILLER_0_21_57
*933 FILLER_0_21_69
*934 FILLER_0_21_81
*935 FILLER_0_21_93
*936 FILLER_0_22_109
*937 FILLER_0_22_121
*938 FILLER_0_22_133
*939 FILLER_0_22_139
*940 FILLER_0_22_14
*941 FILLER_0_22_141
*942 FILLER_0_22_153
*943 FILLER_0_22_165
*944 FILLER_0_22_177
*945 FILLER_0_22_189
*946 FILLER_0_22_195
*947 FILLER_0_22_197
*948 FILLER_0_22_209
*949 FILLER_0_22_22
*950 FILLER_0_22_221
*951 FILLER_0_22_233
*952 FILLER_0_22_245
*953 FILLER_0_22_251
*954 FILLER_0_22_253
*955 FILLER_0_22_265
*956 FILLER_0_22_277
*957 FILLER_0_22_289
*958 FILLER_0_22_29
*959 FILLER_0_22_301
*960 FILLER_0_22_307
*961 FILLER_0_22_309
*962 FILLER_0_22_321
*963 FILLER_0_22_333
*964 FILLER_0_22_345
*965 FILLER_0_22_349
*966 FILLER_0_22_362
*967 FILLER_0_22_365
*968 FILLER_0_22_377
*969 FILLER_0_22_385
*970 FILLER_0_22_392
*971 FILLER_0_22_404
*972 FILLER_0_22_41
*973 FILLER_0_22_53
*974 FILLER_0_22_77
*975 FILLER_0_22_83
*976 FILLER_0_22_85
*977 FILLER_0_22_97
*978 FILLER_0_23_105
*979 FILLER_0_23_11
*980 FILLER_0_23_111
*981 FILLER_0_23_113
*982 FILLER_0_23_125
*983 FILLER_0_23_137
*984 FILLER_0_23_149
*985 FILLER_0_23_161
*986 FILLER_0_23_167
*987 FILLER_0_23_181
*988 FILLER_0_23_193
*989 FILLER_0_23_201
*990 FILLER_0_23_213
*991 FILLER_0_23_222
*992 FILLER_0_23_225
*993 FILLER_0_23_23
*994 FILLER_0_23_237
*995 FILLER_0_23_249
*996 FILLER_0_23_261
*997 FILLER_0_23_273
*998 FILLER_0_23_279
*999 FILLER_0_23_3
*1000 FILLER_0_23_303
*1001 FILLER_0_23_315
*1002 FILLER_0_23_334
*1003 FILLER_0_23_337
*1004 FILLER_0_23_349
*1005 FILLER_0_23_35
*1006 FILLER_0_23_361
*1007 FILLER_0_23_373
*1008 FILLER_0_23_385
*1009 FILLER_0_23_391
*1010 FILLER_0_23_393
*1011 FILLER_0_23_405
*1012 FILLER_0_23_46
*1013 FILLER_0_23_54
*1014 FILLER_0_23_57
*1015 FILLER_0_23_69
*1016 FILLER_0_23_7
*1017 FILLER_0_23_81
*1018 FILLER_0_23_93
*1019 FILLER_0_24_109
*1020 FILLER_0_24_112
*1021 FILLER_0_24_122
*1022 FILLER_0_24_134
*1023 FILLER_0_24_141
*1024 FILLER_0_24_153
*1025 FILLER_0_24_165
*1026 FILLER_0_24_177
*1027 FILLER_0_24_189
*1028 FILLER_0_24_19
*1029 FILLER_0_24_195
*1030 FILLER_0_24_197
*1031 FILLER_0_24_209
*1032 FILLER_0_24_221
*1033 FILLER_0_24_233
*1034 FILLER_0_24_245
*1035 FILLER_0_24_251
*1036 FILLER_0_24_253
*1037 FILLER_0_24_265
*1038 FILLER_0_24_27
*1039 FILLER_0_24_277
*1040 FILLER_0_24_285
*1041 FILLER_0_24_29
*1042 FILLER_0_24_295
*1043 FILLER_0_24_307
*1044 FILLER_0_24_309
*1045 FILLER_0_24_321
*1046 FILLER_0_24_333
*1047 FILLER_0_24_345
*1048 FILLER_0_24_357
*1049 FILLER_0_24_363
*1050 FILLER_0_24_365
*1051 FILLER_0_24_377
*1052 FILLER_0_24_389
*1053 FILLER_0_24_401
*1054 FILLER_0_24_41
*1055 FILLER_0_24_53
*1056 FILLER_0_24_65
*1057 FILLER_0_24_77
*1058 FILLER_0_24_83
*1059 FILLER_0_24_85
*1060 FILLER_0_24_97
*1061 FILLER_0_25_100
*1062 FILLER_0_25_113
*1063 FILLER_0_25_125
*1064 FILLER_0_25_145
*1065 FILLER_0_25_15
*1066 FILLER_0_25_157
*1067 FILLER_0_25_165
*1068 FILLER_0_25_169
*1069 FILLER_0_25_181
*1070 FILLER_0_25_193
*1071 FILLER_0_25_205
*1072 FILLER_0_25_217
*1073 FILLER_0_25_223
*1074 FILLER_0_25_225
*1075 FILLER_0_25_237
*1076 FILLER_0_25_24
*1077 FILLER_0_25_249
*1078 FILLER_0_25_261
*1079 FILLER_0_25_273
*1080 FILLER_0_25_279
*1081 FILLER_0_25_281
*1082 FILLER_0_25_296
*1083 FILLER_0_25_3
*1084 FILLER_0_25_306
*1085 FILLER_0_25_318
*1086 FILLER_0_25_330
*1087 FILLER_0_25_337
*1088 FILLER_0_25_349
*1089 FILLER_0_25_36
*1090 FILLER_0_25_361
*1091 FILLER_0_25_373
*1092 FILLER_0_25_385
*1093 FILLER_0_25_391
*1094 FILLER_0_25_393
*1095 FILLER_0_25_405
*1096 FILLER_0_25_48
*1097 FILLER_0_25_64
*1098 FILLER_0_25_76
*1099 FILLER_0_25_88
*1100 FILLER_0_26_109
*1101 FILLER_0_26_121
*1102 FILLER_0_26_133
*1103 FILLER_0_26_139
*1104 FILLER_0_26_141
*1105 FILLER_0_26_153
*1106 FILLER_0_26_165
*1107 FILLER_0_26_177
*1108 FILLER_0_26_189
*1109 FILLER_0_26_195
*1110 FILLER_0_26_197
*1111 FILLER_0_26_209
*1112 FILLER_0_26_21
*1113 FILLER_0_26_229
*1114 FILLER_0_26_241
*1115 FILLER_0_26_249
*1116 FILLER_0_26_253
*1117 FILLER_0_26_265
*1118 FILLER_0_26_27
*1119 FILLER_0_26_277
*1120 FILLER_0_26_289
*1121 FILLER_0_26_29
*1122 FILLER_0_26_301
*1123 FILLER_0_26_307
*1124 FILLER_0_26_309
*1125 FILLER_0_26_321
*1126 FILLER_0_26_341
*1127 FILLER_0_26_353
*1128 FILLER_0_26_361
*1129 FILLER_0_26_365
*1130 FILLER_0_26_377
*1131 FILLER_0_26_389
*1132 FILLER_0_26_401
*1133 FILLER_0_26_41
*1134 FILLER_0_26_53
*1135 FILLER_0_26_65
*1136 FILLER_0_26_77
*1137 FILLER_0_26_83
*1138 FILLER_0_26_85
*1139 FILLER_0_26_9
*1140 FILLER_0_26_97
*1141 FILLER_0_27_105
*1142 FILLER_0_27_111
*1143 FILLER_0_27_127
*1144 FILLER_0_27_139
*1145 FILLER_0_27_15
*1146 FILLER_0_27_151
*1147 FILLER_0_27_163
*1148 FILLER_0_27_167
*1149 FILLER_0_27_169
*1150 FILLER_0_27_181
*1151 FILLER_0_27_193
*1152 FILLER_0_27_201
*1153 FILLER_0_27_211
*1154 FILLER_0_27_223
*1155 FILLER_0_27_225
*1156 FILLER_0_27_237
*1157 FILLER_0_27_249
*1158 FILLER_0_27_261
*1159 FILLER_0_27_27
*1160 FILLER_0_27_273
*1161 FILLER_0_27_279
*1162 FILLER_0_27_281
*1163 FILLER_0_27_293
*1164 FILLER_0_27_3
*1165 FILLER_0_27_301
*1166 FILLER_0_27_315
*1167 FILLER_0_27_327
*1168 FILLER_0_27_335
*1169 FILLER_0_27_337
*1170 FILLER_0_27_345
*1171 FILLER_0_27_357
*1172 FILLER_0_27_369
*1173 FILLER_0_27_376
*1174 FILLER_0_27_388
*1175 FILLER_0_27_39
*1176 FILLER_0_27_402
*1177 FILLER_0_27_406
*1178 FILLER_0_27_51
*1179 FILLER_0_27_55
*1180 FILLER_0_27_57
*1181 FILLER_0_27_69
*1182 FILLER_0_27_81
*1183 FILLER_0_27_93
*1184 FILLER_0_28_109
*1185 FILLER_0_28_121
*1186 FILLER_0_28_133
*1187 FILLER_0_28_139
*1188 FILLER_0_28_141
*1189 FILLER_0_28_15
*1190 FILLER_0_28_151
*1191 FILLER_0_28_163
*1192 FILLER_0_28_175
*1193 FILLER_0_28_187
*1194 FILLER_0_28_195
*1195 FILLER_0_28_197
*1196 FILLER_0_28_203
*1197 FILLER_0_28_224
*1198 FILLER_0_28_236
*1199 FILLER_0_28_248
*1200 FILLER_0_28_253
*1201 FILLER_0_28_265
*1202 FILLER_0_28_27
*1203 FILLER_0_28_277
*1204 FILLER_0_28_289
*1205 FILLER_0_28_29
*1206 FILLER_0_28_3
*1207 FILLER_0_28_301
*1208 FILLER_0_28_307
*1209 FILLER_0_28_309
*1210 FILLER_0_28_321
*1211 FILLER_0_28_333
*1212 FILLER_0_28_345
*1213 FILLER_0_28_357
*1214 FILLER_0_28_363
*1215 FILLER_0_28_369
*1216 FILLER_0_28_386
*1217 FILLER_0_28_398
*1218 FILLER_0_28_402
*1219 FILLER_0_28_41
*1220 FILLER_0_28_53
*1221 FILLER_0_28_65
*1222 FILLER_0_28_77
*1223 FILLER_0_28_83
*1224 FILLER_0_28_85
*1225 FILLER_0_28_97
*1226 FILLER_0_29_106
*1227 FILLER_0_29_113
*1228 FILLER_0_29_125
*1229 FILLER_0_29_137
*1230 FILLER_0_29_149
*1231 FILLER_0_29_161
*1232 FILLER_0_29_167
*1233 FILLER_0_29_169
*1234 FILLER_0_29_181
*1235 FILLER_0_29_193
*1236 FILLER_0_29_205
*1237 FILLER_0_29_21
*1238 FILLER_0_29_217
*1239 FILLER_0_29_223
*1240 FILLER_0_29_225
*1241 FILLER_0_29_237
*1242 FILLER_0_29_249
*1243 FILLER_0_29_261
*1244 FILLER_0_29_273
*1245 FILLER_0_29_279
*1246 FILLER_0_29_281
*1247 FILLER_0_29_289
*1248 FILLER_0_29_312
*1249 FILLER_0_29_324
*1250 FILLER_0_29_33
*1251 FILLER_0_29_337
*1252 FILLER_0_29_349
*1253 FILLER_0_29_361
*1254 FILLER_0_29_373
*1255 FILLER_0_29_385
*1256 FILLER_0_29_391
*1257 FILLER_0_29_393
*1258 FILLER_0_29_405
*1259 FILLER_0_29_45
*1260 FILLER_0_29_53
*1261 FILLER_0_29_57
*1262 FILLER_0_29_69
*1263 FILLER_0_29_82
*1264 FILLER_0_29_9
*1265 FILLER_0_29_94
*1266 FILLER_0_2_10
*1267 FILLER_0_2_109
*1268 FILLER_0_2_121
*1269 FILLER_0_2_133
*1270 FILLER_0_2_139
*1271 FILLER_0_2_141
*1272 FILLER_0_2_153
*1273 FILLER_0_2_178
*1274 FILLER_0_2_190
*1275 FILLER_0_2_197
*1276 FILLER_0_2_20
*1277 FILLER_0_2_209
*1278 FILLER_0_2_233
*1279 FILLER_0_2_245
*1280 FILLER_0_2_251
*1281 FILLER_0_2_253
*1282 FILLER_0_2_270
*1283 FILLER_0_2_282
*1284 FILLER_0_2_29
*1285 FILLER_0_2_294
*1286 FILLER_0_2_3
*1287 FILLER_0_2_306
*1288 FILLER_0_2_309
*1289 FILLER_0_2_321
*1290 FILLER_0_2_333
*1291 FILLER_0_2_345
*1292 FILLER_0_2_357
*1293 FILLER_0_2_363
*1294 FILLER_0_2_365
*1295 FILLER_0_2_373
*1296 FILLER_0_2_383
*1297 FILLER_0_2_402
*1298 FILLER_0_2_406
*1299 FILLER_0_2_41
*1300 FILLER_0_2_53
*1301 FILLER_0_2_65
*1302 FILLER_0_2_7
*1303 FILLER_0_2_77
*1304 FILLER_0_2_83
*1305 FILLER_0_2_85
*1306 FILLER_0_2_97
*1307 FILLER_0_30_109
*1308 FILLER_0_30_121
*1309 FILLER_0_30_133
*1310 FILLER_0_30_139
*1311 FILLER_0_30_141
*1312 FILLER_0_30_15
*1313 FILLER_0_30_153
*1314 FILLER_0_30_165
*1315 FILLER_0_30_177
*1316 FILLER_0_30_189
*1317 FILLER_0_30_195
*1318 FILLER_0_30_197
*1319 FILLER_0_30_209
*1320 FILLER_0_30_221
*1321 FILLER_0_30_239
*1322 FILLER_0_30_251
*1323 FILLER_0_30_260
*1324 FILLER_0_30_27
*1325 FILLER_0_30_272
*1326 FILLER_0_30_284
*1327 FILLER_0_30_29
*1328 FILLER_0_30_296
*1329 FILLER_0_30_3
*1330 FILLER_0_30_309
*1331 FILLER_0_30_321
*1332 FILLER_0_30_333
*1333 FILLER_0_30_345
*1334 FILLER_0_30_357
*1335 FILLER_0_30_363
*1336 FILLER_0_30_365
*1337 FILLER_0_30_377
*1338 FILLER_0_30_389
*1339 FILLER_0_30_401
*1340 FILLER_0_30_41
*1341 FILLER_0_30_53
*1342 FILLER_0_30_69
*1343 FILLER_0_30_73
*1344 FILLER_0_30_77
*1345 FILLER_0_30_81
*1346 FILLER_0_30_85
*1347 FILLER_0_30_97
*1348 FILLER_0_31_105
*1349 FILLER_0_31_11
*1350 FILLER_0_31_111
*1351 FILLER_0_31_113
*1352 FILLER_0_31_125
*1353 FILLER_0_31_137
*1354 FILLER_0_31_14
*1355 FILLER_0_31_149
*1356 FILLER_0_31_161
*1357 FILLER_0_31_167
*1358 FILLER_0_31_169
*1359 FILLER_0_31_181
*1360 FILLER_0_31_193
*1361 FILLER_0_31_205
*1362 FILLER_0_31_217
*1363 FILLER_0_31_223
*1364 FILLER_0_31_225
*1365 FILLER_0_31_23
*1366 FILLER_0_31_237
*1367 FILLER_0_31_249
*1368 FILLER_0_31_261
*1369 FILLER_0_31_273
*1370 FILLER_0_31_279
*1371 FILLER_0_31_281
*1372 FILLER_0_31_293
*1373 FILLER_0_31_3
*1374 FILLER_0_31_305
*1375 FILLER_0_31_317
*1376 FILLER_0_31_329
*1377 FILLER_0_31_335
*1378 FILLER_0_31_337
*1379 FILLER_0_31_349
*1380 FILLER_0_31_35
*1381 FILLER_0_31_361
*1382 FILLER_0_31_373
*1383 FILLER_0_31_385
*1384 FILLER_0_31_391
*1385 FILLER_0_31_393
*1386 FILLER_0_31_405
*1387 FILLER_0_31_47
*1388 FILLER_0_31_55
*1389 FILLER_0_31_57
*1390 FILLER_0_31_61
*1391 FILLER_0_31_69
*1392 FILLER_0_31_73
*1393 FILLER_0_31_77
*1394 FILLER_0_31_81
*1395 FILLER_0_31_93
*1396 FILLER_0_32_109
*1397 FILLER_0_32_121
*1398 FILLER_0_32_133
*1399 FILLER_0_32_139
*1400 FILLER_0_32_14
*1401 FILLER_0_32_141
*1402 FILLER_0_32_151
*1403 FILLER_0_32_163
*1404 FILLER_0_32_175
*1405 FILLER_0_32_187
*1406 FILLER_0_32_195
*1407 FILLER_0_32_197
*1408 FILLER_0_32_209
*1409 FILLER_0_32_22
*1410 FILLER_0_32_221
*1411 FILLER_0_32_234
*1412 FILLER_0_32_246
*1413 FILLER_0_32_253
*1414 FILLER_0_32_265
*1415 FILLER_0_32_277
*1416 FILLER_0_32_289
*1417 FILLER_0_32_301
*1418 FILLER_0_32_307
*1419 FILLER_0_32_309
*1420 FILLER_0_32_318
*1421 FILLER_0_32_330
*1422 FILLER_0_32_338
*1423 FILLER_0_32_349
*1424 FILLER_0_32_361
*1425 FILLER_0_32_365
*1426 FILLER_0_32_377
*1427 FILLER_0_32_386
*1428 FILLER_0_32_42
*1429 FILLER_0_32_54
*1430 FILLER_0_32_66
*1431 FILLER_0_32_78
*1432 FILLER_0_32_85
*1433 FILLER_0_32_97
*1434 FILLER_0_33_105
*1435 FILLER_0_33_111
*1436 FILLER_0_33_113
*1437 FILLER_0_33_125
*1438 FILLER_0_33_137
*1439 FILLER_0_33_149
*1440 FILLER_0_33_161
*1441 FILLER_0_33_167
*1442 FILLER_0_33_169
*1443 FILLER_0_33_181
*1444 FILLER_0_33_193
*1445 FILLER_0_33_20
*1446 FILLER_0_33_205
*1447 FILLER_0_33_217
*1448 FILLER_0_33_223
*1449 FILLER_0_33_225
*1450 FILLER_0_33_237
*1451 FILLER_0_33_249
*1452 FILLER_0_33_261
*1453 FILLER_0_33_273
*1454 FILLER_0_33_279
*1455 FILLER_0_33_281
*1456 FILLER_0_33_293
*1457 FILLER_0_33_3
*1458 FILLER_0_33_305
*1459 FILLER_0_33_317
*1460 FILLER_0_33_32
*1461 FILLER_0_33_329
*1462 FILLER_0_33_335
*1463 FILLER_0_33_337
*1464 FILLER_0_33_349
*1465 FILLER_0_33_361
*1466 FILLER_0_33_373
*1467 FILLER_0_33_385
*1468 FILLER_0_33_391
*1469 FILLER_0_33_393
*1470 FILLER_0_33_405
*1471 FILLER_0_33_44
*1472 FILLER_0_33_57
*1473 FILLER_0_33_69
*1474 FILLER_0_33_81
*1475 FILLER_0_33_93
*1476 FILLER_0_34_105
*1477 FILLER_0_34_114
*1478 FILLER_0_34_132
*1479 FILLER_0_34_141
*1480 FILLER_0_34_15
*1481 FILLER_0_34_153
*1482 FILLER_0_34_166
*1483 FILLER_0_34_178
*1484 FILLER_0_34_190
*1485 FILLER_0_34_194
*1486 FILLER_0_34_197
*1487 FILLER_0_34_209
*1488 FILLER_0_34_221
*1489 FILLER_0_34_233
*1490 FILLER_0_34_245
*1491 FILLER_0_34_251
*1492 FILLER_0_34_253
*1493 FILLER_0_34_265
*1494 FILLER_0_34_27
*1495 FILLER_0_34_277
*1496 FILLER_0_34_289
*1497 FILLER_0_34_29
*1498 FILLER_0_34_3
*1499 FILLER_0_34_301
*1500 FILLER_0_34_307
*1501 FILLER_0_34_309
*1502 FILLER_0_34_321
*1503 FILLER_0_34_333
*1504 FILLER_0_34_345
*1505 FILLER_0_34_357
*1506 FILLER_0_34_363
*1507 FILLER_0_34_365
*1508 FILLER_0_34_377
*1509 FILLER_0_34_389
*1510 FILLER_0_34_401
*1511 FILLER_0_34_42
*1512 FILLER_0_34_56
*1513 FILLER_0_34_65
*1514 FILLER_0_34_70
*1515 FILLER_0_34_82
*1516 FILLER_0_34_85
*1517 FILLER_0_34_97
*1518 FILLER_0_35_105
*1519 FILLER_0_35_111
*1520 FILLER_0_35_113
*1521 FILLER_0_35_125
*1522 FILLER_0_35_130
*1523 FILLER_0_35_137
*1524 FILLER_0_35_145
*1525 FILLER_0_35_15
*1526 FILLER_0_35_176
*1527 FILLER_0_35_188
*1528 FILLER_0_35_200
*1529 FILLER_0_35_212
*1530 FILLER_0_35_225
*1531 FILLER_0_35_23
*1532 FILLER_0_35_237
*1533 FILLER_0_35_249
*1534 FILLER_0_35_261
*1535 FILLER_0_35_273
*1536 FILLER_0_35_279
*1537 FILLER_0_35_281
*1538 FILLER_0_35_293
*1539 FILLER_0_35_3
*1540 FILLER_0_35_305
*1541 FILLER_0_35_317
*1542 FILLER_0_35_329
*1543 FILLER_0_35_335
*1544 FILLER_0_35_337
*1545 FILLER_0_35_349
*1546 FILLER_0_35_375
*1547 FILLER_0_35_387
*1548 FILLER_0_35_391
*1549 FILLER_0_35_393
*1550 FILLER_0_35_405
*1551 FILLER_0_35_41
*1552 FILLER_0_35_53
*1553 FILLER_0_35_57
*1554 FILLER_0_35_69
*1555 FILLER_0_35_81
*1556 FILLER_0_35_93
*1557 FILLER_0_36_109
*1558 FILLER_0_36_121
*1559 FILLER_0_36_133
*1560 FILLER_0_36_139
*1561 FILLER_0_36_141
*1562 FILLER_0_36_15
*1563 FILLER_0_36_153
*1564 FILLER_0_36_161
*1565 FILLER_0_36_181
*1566 FILLER_0_36_193
*1567 FILLER_0_36_197
*1568 FILLER_0_36_209
*1569 FILLER_0_36_221
*1570 FILLER_0_36_233
*1571 FILLER_0_36_245
*1572 FILLER_0_36_251
*1573 FILLER_0_36_253
*1574 FILLER_0_36_262
*1575 FILLER_0_36_27
*1576 FILLER_0_36_274
*1577 FILLER_0_36_286