*SPEF "ieee 1481-1999"
*DESIGN "twos_complement"
*DATE "13:21:00 Monday April 21, 2025"
*VENDOR "The OpenROAD Project"
*PROGRAM "OpenROAD"
*VERSION "b16bda7e82721d10566ff7e2b68f1ff0be9f9e38"
*DESIGN_FLOW "NAME_SCOPE LOCAL" "PIN_CAP NONE"
*DIVIDER /
*DELIMITER :
*BUS_DELIMITER []
*T_UNIT 1 NS
*C_UNIT 1 PF
*R_UNIT 1 OHM
*L_UNIT 1 HENRY

*NAME_MAP
*3 in[0]
*4 in[1]
*5 in[2]
*6 in[3]
*7 in[4]
*8 in[5]
*9 in[6]
*10 in[7]
*11 out[0]
*12 out[1]
*13 out[2]
*14 out[3]
*15 out[4]
*16 out[5]
*17 out[6]
*18 out[7]
*19 _00_
*20 _01_
*21 _02_
*22 _03_
*23 _04_
*24 _05_
*25 _06_
*26 _07_
*27 _08_
*28 _09_
*29 net1
*30 net10
*31 net11
*32 net12
*33 net13
*34 net14
*35 net15
*36 net16
*37 net2
*38 net3
*39 net4
*40 net5
*41 net6
*42 net7
*43 net8
*44 net9
*45 FILLER_0_0_20
*46 FILLER_0_0_29
*47 FILLER_0_0_37
*48 FILLER_0_0_9
*49 FILLER_0_10_18
*50 FILLER_0_10_26
*51 FILLER_0_10_29
*52 FILLER_0_10_41
*53 FILLER_0_10_6
*54 FILLER_0_11_13
*55 FILLER_0_11_25
*56 FILLER_0_11_37
*57 FILLER_0_11_45
*58 FILLER_0_11_6
*59 FILLER_0_12_13
*60 FILLER_0_12_25
*61 FILLER_0_12_29
*62 FILLER_0_12_37
*63 FILLER_0_1_14
*64 FILLER_0_1_22
*65 FILLER_0_1_3
*66 FILLER_0_1_30
*67 FILLER_0_1_38
*68 FILLER_0_1_43
*69 FILLER_0_1_47
*70 FILLER_0_2_12
*71 FILLER_0_2_24
*72 FILLER_0_2_29
*73 FILLER_0_2_3
*74 FILLER_0_2_37
*75 FILLER_0_2_41
*76 FILLER_0_2_47
*77 FILLER_0_3_15
*78 FILLER_0_3_27
*79 FILLER_0_3_39
*80 FILLER_0_3_43
*81 FILLER_0_3_6
*82 FILLER_0_4_15
*83 FILLER_0_4_27
*84 FILLER_0_4_3
*85 FILLER_0_4_36
*86 FILLER_0_5_12
*87 FILLER_0_5_19
*88 FILLER_0_5_31
*89 FILLER_0_5_43
*90 FILLER_0_5_6
*91 FILLER_0_6_11
*92 FILLER_0_6_27
*93 FILLER_0_6_29
*94 FILLER_0_6_3
*95 FILLER_0_6_41
*96 FILLER_0_6_47
*97 FILLER_0_7_20
*98 FILLER_0_7_24
*99 FILLER_0_7_3
*100 FILLER_0_7_30
*101 FILLER_0_7_38
*102 FILLER_0_7_43
*103 FILLER_0_7_47
*104 FILLER_0_8_12
*105 FILLER_0_8_24
*106 FILLER_0_8_34
*107 FILLER_0_8_42
*108 FILLER_0_9_15
*109 FILLER_0_9_26
*110 FILLER_0_9_3
*111 FILLER_0_9_38
*112 FILLER_0_9_46
*113 PHY_EDGE_ROW_0_Left_13
*114 PHY_EDGE_ROW_0_Right_0
*115 PHY_EDGE_ROW_10_Left_23
*116 PHY_EDGE_ROW_10_Right_10
*117 PHY_EDGE_ROW_11_Left_24
*118 PHY_EDGE_ROW_11_Right_11
*119 PHY_EDGE_ROW_12_Left_25
*120 PHY_EDGE_ROW_12_Right_12
*121 PHY_EDGE_ROW_1_Left_14
*122 PHY_EDGE_ROW_1_Right_1
*123 PHY_EDGE_ROW_2_Left_15
*124 PHY_EDGE_ROW_2_Right_2
*125 PHY_EDGE_ROW_3_Left_16
*126 PHY_EDGE_ROW_3_Right_3
*127 PHY_EDGE_ROW_4_Left_17
*128 PHY_EDGE_ROW_4_Right_4
*129 PHY_EDGE_ROW_5_Left_18
*130 PHY_EDGE_ROW_5_Right_5
*131 PHY_EDGE_ROW_6_Left_19
*132 PHY_EDGE_ROW_6_Right_6
*133 PHY_EDGE_ROW_7_Left_20
*134 PHY_EDGE_ROW_7_Right_7
*135 PHY_EDGE_ROW_8_Left_21
*136 PHY_EDGE_ROW_8_Right_8
*137 PHY_EDGE_ROW_9_Left_22
*138 PHY_EDGE_ROW_9_Right_9
*139 TAP_TAPCELL_ROW_0_26
*140 TAP_TAPCELL_ROW_10_31
*141 TAP_TAPCELL_ROW_12_32
*142 TAP_TAPCELL_ROW_2_27
*143 TAP_TAPCELL_ROW_4_28
*144 TAP_TAPCELL_ROW_6_29
*145 TAP_TAPCELL_ROW_8_30
*146 _10_
*147 _11_
*148 _12_
*149 _13_
*150 _14_
*151 _15_
*152 _16_
*153 _17_
*154 _18_
*155 _19_
*156 _20_
*157 _21_
*158 _22_
*159 _23_
*160 _24_
*161 _25_
*162 _26_
*163 _27_
*164 input1
*165 input2
*166 input3
*167 input4
*168 input5
*169 input6
*170 input7
*171 input8
*172 output10
*173 output11
*174 output12
*175 output13
*176 output14
*177 output15
*178 output16
*179 output9

*PORTS
in[0] I
in[1] I
in[2] I
in[3] I
in[4] I
in[5] I
in[6] I
in[7] I
out[0] O
out[1] O
out[2] O
out[3] O
out[4] O
out[5] O
out[6] O
out[7] O

*D_NET *3 0.00105377
*CONN
*P in[0] I
*I *164:A I *D sky130_fd_sc_hd__dlymetal6s2s_1
*CAP
1 in[0] 0.000526885
2 *164:A 0.000526885
3 *164:A *165:A 0
*RES
1 in[0] *164:A 24.1943 
*END

*D_NET *4 0.000762532
*CONN
*P in[1] I
*I *165:A I *D sky130_fd_sc_hd__buf_1
*CAP
1 in[1] 0.000381266
2 *165:A 0.000381266
3 *165:A *166:A 0
4 *164:A *165:A 0
*RES
1 in[1] *165:A 22.3017 
*END

*D_NET *5 0.000578318
*CONN
*P in[2] I
*I *166:A I *D sky130_fd_sc_hd__buf_1
*CAP
1 in[2] 0.000289159
2 *166:A 0.000289159
3 *166:A *167:A 0
4 *165:A *166:A 0
*RES
1 in[2] *166:A 20.4803 
*END

*D_NET *6 0.0012445
*CONN
*P in[3] I
*I *167:A I *D sky130_fd_sc_hd__clkbuf_1
*CAP
1 in[3] 0.000436454
2 *167:A 0.000436454
3 *167:A *156:A 0.000142231
4 *167:A *158:A 0.00022936
5 *167:A *160:B 0
6 *167:A *162:A 0
7 *167:A *168:A 0
8 *166:A *167:A 0
*RES
1 in[3] *167:A 24.1382 
*END

*D_NET *7 0.000616374
*CONN
*P in[4] I
*I *168:A I *D sky130_fd_sc_hd__buf_1
*CAP
1 in[4] 0.000308187
2 *168:A 0.000308187
3 *168:A *160:B 0
4 *168:A *169:A 0
5 *167:A *168:A 0
*RES
1 in[4] *168:A 20.7838 
*END

*D_NET *8 0.000726137
*CONN
*P in[5] I
*I *169:A I *D sky130_fd_sc_hd__buf_1
*CAP
1 in[5] 0.000363069
2 *169:A 0.000363069
3 *169:A *160:B 0
4 *169:A *170:A 0
5 *168:A *169:A 0
*RES
1 in[5] *169:A 21.9981 
*END

*D_NET *9 0.000563768
*CONN
*P in[6] I
*I *170:A I *D sky130_fd_sc_hd__clkbuf_1
*CAP
1 in[6] 0.000281884
2 *170:A 0.000281884
3 *170:A *171:A 0
4 *169:A *170:A 0
*RES
1 in[6] *170:A 20.4803 
*END

*D_NET *10 0.00123174
*CONN
*P in[7] I
*I *171:A I *D sky130_fd_sc_hd__clkbuf_1
*CAP
1 in[7] 0.000615872
2 *171:A 0.000615872
3 *171:A *147:A 0
4 *170:A *171:A 0
*RES
1 in[7] *171:A 25.0176 
*END

*D_NET *11 0.00116601
*CONN
*P out[0] O
*I *179:X O *D sky130_fd_sc_hd__buf_2
*CAP
1 out[0] 0.000583005
2 *179:X 0.000583005
3 out[0] out[1] 0
*RES
1 *179:X out[0] 23.8754 
*END

*D_NET *12 0.000438356
*CONN
*P out[1] O
*I *172:X O *D sky130_fd_sc_hd__buf_2
*CAP
1 out[1] 0.000219178
2 *172:X 0.000219178
3 out[1] out[2] 0
4 out[0] out[1] 0
*RES
1 *172:X out[1] 18.1229 
*END

*D_NET *13 0.000437128
*CONN
*P out[2] O
*I *173:X O *D sky130_fd_sc_hd__buf_2
*CAP
1 out[2] 0.000218564
2 *173:X 0.000218564
3 out[2] out[3] 0
4 out[2] *44:10 0
5 out[1] out[2] 0
*RES
1 *173:X out[2] 18.1229 
*END

*D_NET *14 0.000598041
*CONN
*P out[3] O
*I *174:X O *D sky130_fd_sc_hd__buf_2
*CAP
1 out[3] 0.000267648
2 *174:X 0.000267648
3 out[3] out[4] 0
4 out[3] *174:A 6.27457e-05
5 out[2] out[3] 0
*RES
1 *174:X out[3] 19.3371 
*END

*D_NET *15 0.000440675
*CONN
*P out[4] O
*I *175:X O *D sky130_fd_sc_hd__buf_2
*CAP
1 out[4] 0.00021424
2 *175:X 0.00021424
3 out[4] out[5] 0
4 out[4] *174:A 1.21955e-05
5 out[3] out[4] 0
*RES
1 *175:X out[4] 18.1229 
*END

*D_NET *16 0.000598224
*CONN
*P out[5] O
*I *176:X O *D sky130_fd_sc_hd__buf_2
*CAP
1 out[5] 0.000279469
2 *176:X 0.000279469
3 out[5] out[6] 0
4 out[5] *174:A 3.92854e-05
5 out[5] *44:10 0
6 out[4] out[5] 0
*RES
1 *176:X out[5] 19.3371 
*END

*D_NET *17 0.000774071
*CONN
*P out[6] O
*I *177:X O *D sky130_fd_sc_hd__buf_2
*CAP
1 out[6] 0.000387035
2 *177:X 0.000387035
3 out[6] out[7] 0
4 out[5] out[6] 0
*RES
1 *177:X out[6] 18.5553 
*END

*D_NET *18 0.00103775
*CONN
*P out[7] O
*I *178:X O *D sky130_fd_sc_hd__clkbuf_4
*CAP
1 out[7] 0.000518877
2 *178:X 0.000518877
3 out[6] out[7] 0
*RES
1 *178:X out[7] 24.4258 
*END

*D_NET *19 0.00902075
*CONN
*I *162:A I *D sky130_fd_sc_hd__nor2_1
*I *147:B I *D sky130_fd_sc_hd__xnor2_1
*I *146:Y O *D sky130_fd_sc_hd__nor2_1
*CAP
1 *162:A 0.000538129
2 *147:B 0.000616943
3 *146:Y 0.00121006
4 *19:8 0.00236513
5 *147:B *147:A 5.52302e-05
6 *147:B *156:C 0.000173369
7 *147:B *160:B 0.00111971
8 *147:B *42:8 0.000929537
9 *162:A *156:C 2.59093e-05
10 *162:A *160:B 0.000192577
11 *162:A *29:18 0
12 *162:A *37:12 0.000757695
13 *19:8 *146:B 0.000440705
14 *19:8 *37:12 0.000244226
15 *19:8 *37:27 6.59189e-05
16 *19:8 *37:34 0.000285621
17 *167:A *162:A 0
*RES
1 *146:Y *19:8 29.5321 
2 *19:8 *147:B 34.2464 
3 *19:8 *162:A 27.1393 
*END

*D_NET *20 0.00167819
*CONN
*I *150:A_N I *D sky130_fd_sc_hd__and2b_1
*I *148:X O *D sky130_fd_sc_hd__o31a_1
*CAP
1 *150:A_N 0.00033848
2 *148:X 0.00033848
3 *150:A_N *148:A1 0.000295123
4 *150:A_N *149:D 5.52238e-05
5 *150:A_N *151:A 0.000493554
6 *150:A_N *153:B 5.23057e-05
7 *150:A_N *21:51 4.70048e-05
8 *150:A_N *29:42 5.80205e-05
*RES
1 *148:X *150:A_N 37.2429 
*END

*D_NET *21 0.00478578
*CONN
*I *153:B I *D sky130_fd_sc_hd__and2_1
*I *150:B I *D sky130_fd_sc_hd__and2b_1
*I *156:D I *D sky130_fd_sc_hd__or4_1
*I *157:A3 I *D sky130_fd_sc_hd__o31ai_1
*I *152:B I *D sky130_fd_sc_hd__nor2_1
*I *149:X O *D sky130_fd_sc_hd__or4_2
*CAP
1 *153:B 0.000170142
2 *150:B 0
3 *156:D 0.000369058
4 *157:A3 0
5 *152:B 0.000471873
6 *149:X 6.34971e-05
7 *21:51 0.000257098
8 *21:36 0.000509962
9 *21:12 0.000635956
10 *21:6 0.000281527
11 *152:B *147:A 0.000217744
12 *152:B *154:A 0
13 *152:B *155:B 0
14 *152:B *159:A 0
15 *152:B *23:8 6.38152e-05
16 *152:B *38:12 6.93944e-05
17 *153:B *154:A 0
18 *153:B *158:B 0
19 *153:B *29:42 0.00014285
20 *156:D *149:A 2.59355e-05
21 *156:D *149:B 5.33005e-05
22 *156:D *149:C 9.60939e-05
23 *156:D *149:D 1.16078e-05
24 *156:D *156:B 0.000315165
25 *156:D *29:18 0.000149372
26 *21:6 *149:D 9.77118e-05
27 *21:12 *149:D 9.63333e-05
28 *21:12 *159:A 0
29 *21:12 *38:12 6.75347e-06
30 *21:12 *40:27 0.000125731
31 *21:36 *149:A 5.54655e-05
32 *21:36 *159:A 2.73682e-05
33 *21:36 *40:27 1.27784e-05
34 *21:51 *149:B 5.49544e-05
35 *21:51 *149:D 5.15092e-05
36 *21:51 *29:42 0.000253473
37 *150:A_N *153:B 5.23057e-05
38 *150:A_N *21:51 4.70048e-05
*RES
1 *149:X *21:6 10.2464 
2 *21:6 *21:12 7.39286 
3 *21:12 *152:B 22.9786 
4 *21:12 *157:A3 13.8 
5 *21:6 *21:36 10.3393 
6 *21:36 *156:D 26.1929 
7 *21:36 *21:51 3 
8 *21:51 *150:B 9.3 
9 *21:51 *153:B 21.9071 
*END

*D_NET *22 0.00242466
*CONN
*I *151:A I *D sky130_fd_sc_hd__clkbuf_1
*I *150:X O *D sky130_fd_sc_hd__and2b_1
*CAP
1 *151:A 0.000690423
2 *150:X 0.000690423
3 *151:A *148:A1 0
4 *151:A *177:A 0.00015304
5 *151:A *31:12 0
6 *151:A *44:10 0.000397223
7 *150:A_N *151:A 0.000493554
*RES
1 *150:X *151:A 41.8857 
*END

*D_NET *23 0.00385532
*CONN
*I *154:A I *D sky130_fd_sc_hd__nor2_1
*I *155:B I *D sky130_fd_sc_hd__xnor2_1
*I *152:Y O *D sky130_fd_sc_hd__nor2_1
*CAP
1 *154:A 0.000716909
2 *155:B 0.000224105
3 *152:Y 0.000429613
4 *23:8 0.00137063
5 *154:A *148:B1 0.000340781
6 *154:A *154:B 0.000183674
7 *154:A *158:B 0
8 *154:A *159:A 6.16958e-05
9 *154:A *162:B 0
10 *154:A *163:A 0
11 *154:A *176:A 0
12 *154:A *29:44 0
13 *154:A *39:12 0.000403323
14 *155:B *155:A 2.89114e-05
15 *155:B *163:A 0
16 *155:B *176:A 0
17 *155:B *178:A 3.18676e-05
18 *155:B *31:12 0
19 *152:B *154:A 0
20 *152:B *155:B 0
21 *152:B *23:8 6.38152e-05
22 *153:B *154:A 0
*RES
1 *152:Y *23:8 18.8536 
2 *23:8 *155:B 17.8 
3 *23:8 *154:A 30.3179 
*END

*D_NET *24 0.000563348
*CONN
*I *154:B I *D sky130_fd_sc_hd__nor2_1
*I *153:X O *D sky130_fd_sc_hd__and2_1
*CAP
1 *154:B 0.000189837
2 *153:X 0.000189837
3 *154:B *158:B 0
4 *154:B *31:12 0
5 *154:A *154:B 0.000183674
*RES
1 *153:X *154:B 31.975 
*END

*D_NET *25 0.00537375
*CONN
*I *158:A I *D sky130_fd_sc_hd__and2_1
*I *160:B I *D sky130_fd_sc_hd__xor2_1
*I *156:X O *D sky130_fd_sc_hd__or4_1
*CAP
1 *158:A 0.000734457
2 *160:B 0.000790628
3 *156:X 0
4 *25:4 0.00152508
5 *158:A *156:A 0.000192365
6 *158:A *159:A 0.000109604
7 *158:A *39:12 0.000378499
8 *160:B *155:A 4.65142e-05
9 *160:B *160:A 5.49544e-05
10 *147:B *160:B 0.00111971
11 *162:A *160:B 0.000192577
12 *167:A *158:A 0.00022936
13 *167:A *160:B 0
14 *168:A *160:B 0
15 *169:A *160:B 0
*RES
1 *156:X *25:4 9.3 
2 *25:4 *160:B 37.8179 
3 *25:4 *158:A 23.1571 
*END

*D_NET *26 0.00230747
*CONN
*I *158:B I *D sky130_fd_sc_hd__and2_1
*I *157:Y O *D sky130_fd_sc_hd__o31ai_1
*CAP
1 *158:B 0.000903431
2 *157:Y 0.000903431
3 *158:B *146:B 9.15804e-05
4 *158:B *157:A1 9.56233e-05
5 *158:B *29:44 0.000196262
6 *158:B *31:12 0.000117144
7 *153:B *158:B 0
8 *154:A *158:B 0
9 *154:B *158:B 0
*RES
1 *157:Y *158:B 41.2071 
*END

*D_NET *27 0.00284786
*CONN
*I *159:A I *D sky130_fd_sc_hd__clkbuf_1
*I *158:X O *D sky130_fd_sc_hd__and2_1
*CAP
1 *159:A 0.00100752
2 *158:X 0.00100752
3 *159:A *148:B1 0.000181359
4 *159:A *156:A 0
5 *159:A *162:B 0
6 *159:A *177:A 9.86316e-05
7 *159:A *29:31 6.72876e-05
8 *159:A *39:12 0.000286868
9 *152:B *159:A 0
10 *154:A *159:A 6.16958e-05
11 *158:A *159:A 0.000109604
12 *21:12 *159:A 0
13 *21:36 *159:A 2.73682e-05
*RES
1 *158:X *159:A 46.1893 
*END

*D_NET *28 0.00141617
*CONN
*I *162:B I *D sky130_fd_sc_hd__nor2_1
*I *161:X O *D sky130_fd_sc_hd__and2_1
*CAP
1 *162:B 0.000518488
2 *161:X 0.000518488
3 *162:B *156:A 0.000148189
4 *162:B *172:A 7.64988e-05
5 *162:B *38:10 0.000154504
6 *162:B *39:12 0
7 *154:A *162:B 0
8 *159:A *162:B 0
*RES
1 *161:X *162:B 38.1893 
*END

*D_NET *29 0.00857613
*CONN
*I *146:B I *D sky130_fd_sc_hd__nor2_1
*I *148:A2 I *D sky130_fd_sc_hd__o31a_1
*I *163:A I *D sky130_fd_sc_hd__clkbuf_1
*I *149:B I *D sky130_fd_sc_hd__or4_2
*I *161:B I *D sky130_fd_sc_hd__and2_1
*I *164:X O *D sky130_fd_sc_hd__dlymetal6s2s_1
*CAP
1 *146:B 0.000166956
2 *148:A2 0
3 *163:A 0.000417181
4 *149:B 7.42154e-05
5 *161:B 0
6 *164:X 0.000809412
7 *29:44 0.000595154
8 *29:42 0.00078316
9 *29:31 0.000611622
10 *29:18 0.000908587
11 *146:B *146:A 0.000279704
12 *146:B *31:12 9.91086e-05
13 *146:B *37:34 9.41642e-05
14 *163:A *176:A 0.000126573
15 *163:A *178:A 0.000169063
16 *163:A *31:12 0.000561696
17 *29:18 *153:A 0.000142157
18 *29:18 *156:B 6.4478e-05
19 *29:18 *37:12 0.000489233
20 *29:18 *37:27 5.49544e-05
21 *29:31 *149:A 5.72546e-05
22 *29:31 *153:A 5.49489e-05
23 *29:31 *37:27 4.17433e-05
24 *29:44 *31:12 0.000466957
25 *150:A_N *29:42 5.80205e-05
26 *153:B *29:42 0.00014285
27 *154:A *163:A 0
28 *154:A *29:44 0
29 *155:B *163:A 0
30 *156:D *149:B 5.33005e-05
31 *156:D *29:18 0.000149372
32 *158:B *146:B 9.15804e-05
33 *158:B *29:44 0.000196262
34 *159:A *29:31 6.72876e-05
35 *162:A *29:18 0
36 *19:8 *146:B 0.000440705
37 *21:51 *149:B 5.49544e-05
38 *21:51 *29:42 0.000253473
*RES
1 *164:X *29:18 35.2821 
2 *29:18 *161:B 9.3 
3 *29:18 *29:31 11.4821 
4 *29:31 *149:B 10.2464 
5 *29:31 *29:42 10.375 
6 *29:42 *29:44 5.89286 
7 *29:44 *163:A 25.1393 
8 *29:44 *148:A2 13.8 
9 *29:42 *146:B 20.1036 
*END

*D_NET *30 0.00259538
*CONN
*I *172:A I *D sky130_fd_sc_hd__buf_2
*I *162:Y O *D sky130_fd_sc_hd__nor2_1
*CAP
1 *172:A 0.00125944
2 *162:Y 0.00125944
3 *172:A *44:10 0
4 *162:B *172:A 7.64988e-05
*RES
1 *162:Y *172:A 42.9214 
*END

*D_NET *31 0.00505545
*CONN
*I *173:A I *D sky130_fd_sc_hd__buf_2
*I *147:Y O *D sky130_fd_sc_hd__xnor2_1
*CAP
1 *173:A 0.000289949
2 *147:Y 0.00132532
3 *31:12 0.00161527
4 *31:12 *148:A1 0.000580002
5 *31:12 *177:A 0
6 *31:12 *44:10 0
7 *146:B *31:12 9.91086e-05
8 *151:A *31:12 0
9 *154:B *31:12 0
10 *155:B *31:12 0
11 *158:B *31:12 0.000117144
12 *163:A *31:12 0.000561696
13 *29:44 *31:12 0.000466957
*RES
1 *147:Y *31:12 47.9786 
2 *31:12 *173:A 13.9429 
*END

*D_NET *32 0.00218457
*CONN
*I *174:A I *D sky130_fd_sc_hd__buf_2
*I *151:X O *D sky130_fd_sc_hd__clkbuf_1
*CAP
1 *174:A 0.000751896
2 *151:X 0.000751896
3 *174:A *175:A 0.000566547
4 *174:A *44:10 0
5 out[3] *174:A 6.27457e-05
6 out[4] *174:A 1.21955e-05
7 out[5] *174:A 3.92854e-05
*RES
1 *151:X *174:A 43.1536 
*END

*D_NET *33 0.00278791
*CONN
*I *175:A I *D sky130_fd_sc_hd__buf_2
*I *154:Y O *D sky130_fd_sc_hd__nor2_1
*CAP
1 *175:A 0.000981629
2 *154:Y 0.000981629
3 *175:A *44:10 0.000258107
4 *174:A *175:A 0.000566547
*RES
1 *154:Y *175:A 44.5821 
*END

*D_NET *34 0.00139105
*CONN
*I *176:A I *D sky130_fd_sc_hd__buf_2
*I *155:Y O *D sky130_fd_sc_hd__xnor2_1
*CAP
1 *176:A 0.000568605
2 *155:Y 0.000568605
3 *176:A *177:A 0.000127267
4 *154:A *176:A 0
5 *155:B *176:A 0
6 *163:A *176:A 0.000126573
*RES
1 *155:Y *176:A 38.2607 
*END

*D_NET *35 0.00272226
*CONN
*I *177:A I *D sky130_fd_sc_hd__buf_2
*I *159:X O *D sky130_fd_sc_hd__clkbuf_1
*CAP
1 *177:A 0.00114974
2 *159:X 0.00114974
3 *177:A *178:A 0
4 *177:A *44:10 4.38511e-05
5 *151:A *177:A 0.00015304
6 *159:A *177:A 9.86316e-05
7 *176:A *177:A 0.000127267
8 *31:12 *177:A 0
*RES
1 *159:X *177:A 44.5107 
*END

*D_NET *36 0.00247615
*CONN
*I *178:A I *D sky130_fd_sc_hd__clkbuf_4
*I *160:X O *D sky130_fd_sc_hd__xor2_1
*CAP
1 *178:A 0.00107006
2 *160:X 0.00107006
3 *178:A *155:A 0.000135096
4 *155:B *178:A 3.18676e-05
5 *163:A *178:A 0.000169063
6 *177:A *178:A 0
*RES
1 *160:X *178:A 41.9929 
*END

*D_NET *37 0.0062757
*CONN
*I *146:A I *D sky130_fd_sc_hd__nor2_1
*I *148:A1 I *D sky130_fd_sc_hd__o31a_1
*I *161:A I *D sky130_fd_sc_hd__and2_1
*I *149:A I *D sky130_fd_sc_hd__or4_2
*I *165:X O *D sky130_fd_sc_hd__buf_1
*CAP
1 *146:A 0.000112169
2 *148:A1 0.000267163
3 *161:A 0
4 *149:A 0.000113347
5 *165:X 0.000408088
6 *37:34 0.000605166
7 *37:27 0.000262059
8 *37:12 0.00055766
9 *148:A1 *44:10 0
10 *149:A *149:D 5.49489e-05
11 *149:A *40:27 0.000100009
12 *37:12 *156:B 3.90513e-05
13 *37:12 *156:C 0.000197984
14 *37:27 *153:A 2.23592e-05
15 *37:34 *153:A 0.000208661
16 *146:B *146:A 0.000279704
17 *146:B *37:34 9.41642e-05
18 *150:A_N *148:A1 0.000295123
19 *151:A *148:A1 0
20 *156:D *149:A 2.59355e-05
21 *162:A *37:12 0.000757695
22 *19:8 *37:12 0.000244226
23 *19:8 *37:27 6.59189e-05
24 *19:8 *37:34 0.000285621
25 *21:36 *149:A 5.54655e-05
26 *29:18 *37:12 0.000489233
27 *29:18 *37:27 5.49544e-05
28 *29:31 *149:A 5.72546e-05
29 *29:31 *37:27 4.17433e-05
30 *31:12 *148:A1 0.000580002
*RES
1 *165:X *37:12 32.4786 
2 *37:12 *149:A 21.3893 
3 *37:12 *37:27 1.35714 
4 *37:27 *161:A 9.3 
5 *37:27 *37:34 6.28571 
6 *37:34 *148:A1 26.2464 
7 *37:34 *146:A 12.3179 
*END

*D_NET *38 0.0054219
*CONN
*I *149:C I *D sky130_fd_sc_hd__or4_2
*I *148:A3 I *D sky130_fd_sc_hd__o31a_1
*I *147:A I *D sky130_fd_sc_hd__xnor2_1
*I *166:X O *D sky130_fd_sc_hd__buf_1
*CAP
1 *149:C 3.64513e-05
2 *148:A3 0.000466349
3 *147:A 0.000585016
4 *166:X 0.00071849
5 *38:12 0.00125859
6 *38:10 0.000962168
7 *147:A *155:A 0
8 *147:A *42:8 0
9 *148:A3 *148:B1 0.000195386
10 *149:C *149:D 2.89114e-05
11 *38:10 *156:A 0.000159811
12 *38:10 *156:B 0
13 *38:10 *40:27 0.000213965
14 *38:12 *156:B 0
15 *38:12 *40:27 0.000197045
16 *147:B *147:A 5.52302e-05
17 *152:B *147:A 0.000217744
18 *152:B *38:12 6.93944e-05
19 *156:D *149:C 9.60939e-05
20 *162:B *38:10 0.000154504
21 *171:A *147:A 0
22 *21:12 *38:12 6.75347e-06
*RES
1 *166:X *38:10 26.1393 
2 *38:10 *38:12 4.67857 
3 *38:12 *147:A 25.1929 
4 *38:12 *148:A3 21.3179 
5 *38:10 *149:C 14.7464 
*END

*D_NET *39 0.00390171
*CONN
*I *149:D I *D sky130_fd_sc_hd__or4_2
*I *148:B1 I *D sky130_fd_sc_hd__o31a_1
*I *167:X O *D sky130_fd_sc_hd__clkbuf_1
*CAP
1 *149:D 0.000187496
2 *148:B1 0.000261668
3 *167:X 0.000410462
4 *39:12 0.000859626
5 *148:A3 *148:B1 0.000195386
6 *149:A *149:D 5.49489e-05
7 *149:C *149:D 2.89114e-05
8 *150:A_N *149:D 5.52238e-05
9 *154:A *148:B1 0.000340781
10 *154:A *39:12 0.000403323
11 *156:D *149:D 1.16078e-05
12 *158:A *39:12 0.000378499
13 *159:A *148:B1 0.000181359
14 *159:A *39:12 0.000286868
15 *162:B *39:12 0
16 *21:6 *149:D 9.77118e-05
17 *21:12 *149:D 9.63333e-05
18 *21:51 *149:D 5.15092e-05
*RES
1 *167:X *39:12 24.1571 
2 *39:12 *148:B1 21.5857 
3 *39:12 *149:D 17.7643 
*END

*D_NET *40 0.00561122
*CONN
*I *157:A1 I *D sky130_fd_sc_hd__o31ai_1
*I *156:A I *D sky130_fd_sc_hd__or4_1
*I *153:A I *D sky130_fd_sc_hd__and2_1
*I *152:A I *D sky130_fd_sc_hd__nor2_1
*I *168:X O *D sky130_fd_sc_hd__buf_1
*CAP
1 *157:A1 5.91071e-05
2 *156:A 0.000277021
3 *153:A 0.000338873
4 *152:A 0.000313921
5 *168:X 6.78646e-05
6 *40:27 0.000788527
7 *40:23 0.000329458
8 *40:6 0.000479504
9 *152:A *155:A 0.000277516
10 *152:A *156:B 3.17148e-05
11 *152:A *41:23 0.000270943
12 *157:A1 *157:A2 5.05251e-05
13 *40:6 *157:A2 5.33005e-05
14 *40:6 *157:B1 7.02611e-05
15 *40:23 *157:A2 0.000266201
16 *40:23 *157:B1 0.000120604
17 *149:A *40:27 0.000100009
18 *158:A *156:A 0.000192365
19 *158:B *157:A1 9.56233e-05
20 *159:A *156:A 0
21 *162:B *156:A 0.000148189
22 *167:A *156:A 0.000142231
23 *21:12 *40:27 0.000125731
24 *21:36 *40:27 1.27784e-05
25 *29:18 *153:A 0.000142157
26 *29:31 *153:A 5.49489e-05
27 *37:27 *153:A 2.23592e-05
28 *37:34 *153:A 0.000208661
29 *38:10 *156:A 0.000159811
30 *38:10 *40:27 0.000213965
31 *38:12 *40:27 0.000197045
*RES
1 *168:X *40:6 10.6571 
2 *40:6 *152:A 25.9429 
3 *40:6 *40:23 3.32143 
4 *40:23 *40:27 9.78571 
5 *40:27 *153:A 20.1036 
6 *40:27 *156:A 20.3 
7 *40:23 *157:A1 11.0679 
*END

*D_NET *41 0.00531806
*CONN
*I *156:B I *D sky130_fd_sc_hd__or4_1
*I *157:A2 I *D sky130_fd_sc_hd__o31ai_1
*I *155:A I *D sky130_fd_sc_hd__xnor2_1
*I *169:X O *D sky130_fd_sc_hd__buf_1
*CAP
1 *156:B 0.000280518
2 *157:A2 0.000315629
3 *155:A 0.00059342
4 *169:X 9.05099e-05
5 *41:23 0.00067837
6 *41:8 0.000766154
7 *155:A *160:A 5.49544e-05
8 *155:A *42:8 0.000230201
9 *156:B *156:C 0.000551023
10 *156:B *42:8 3.67452e-05
11 *41:23 *42:8 0.000141122
12 *147:A *155:A 0
13 *152:A *155:A 0.000277516
14 *152:A *156:B 3.17148e-05
15 *152:A *41:23 0.000270943
16 *155:B *155:A 2.89114e-05
17 *156:D *156:B 0.000315165
18 *157:A1 *157:A2 5.05251e-05
19 *160:B *155:A 4.65142e-05
20 *178:A *155:A 0.000135096
21 *29:18 *156:B 6.4478e-05
22 *37:12 *156:B 3.90513e-05
23 *38:10 *156:B 0
24 *38:12 *156:B 0
25 *40:6 *157:A2 5.33005e-05
26 *40:23 *157:A2 0.000266201
*RES
1 *169:X *41:8 14.7464 
2 *41:8 *155:A 27.0321 
3 *41:8 *41:23 3.46429 
4 *41:23 *157:A2 18.3804 
5 *41:23 *156:B 22.7286 
*END

*D_NET *42 0.00380362
*CONN
*I *156:C I *D sky130_fd_sc_hd__or4_1
*I *157:B1 I *D sky130_fd_sc_hd__o31ai_1
*I *170:X O *D sky130_fd_sc_hd__clkbuf_1
*CAP
1 *156:C 0.00020394
2 *157:B1 0.000169523
3 *170:X 0.000262542
4 *42:8 0.000636006
5 *42:8 *160:A 5.48581e-05
6 *147:A *42:8 0
7 *147:B *156:C 0.000173369
8 *147:B *42:8 0.000929537
9 *155:A *42:8 0.000230201
10 *156:B *156:C 0.000551023
11 *156:B *42:8 3.67452e-05
12 *162:A *156:C 2.59093e-05
13 *37:12 *156:C 0.000197984
14 *40:6 *157:B1 7.02611e-05
15 *40:23 *157:B1 0.000120604
16 *41:23 *42:8 0.000141122
*RES
1 *170:X *42:8 25.4607 
2 *42:8 *157:B1 17.2107 
3 *42:8 *156:C 21.5679 
*END

*D_NET *43 0.000376354
*CONN
*I *160:A I *D sky130_fd_sc_hd__xor2_1
*I *171:X O *D sky130_fd_sc_hd__clkbuf_1
*CAP
1 *160:A 0.000105794
2 *171:X 0.000105794
3 *155:A *160:A 5.49544e-05
4 *160:B *160:A 5.49544e-05
5 *42:8 *160:A 5.48581e-05
*RES
1 *171:X *160:A 30.0821 
*END

*D_NET *44 0.00311944
*CONN
*I *179:A I *D sky130_fd_sc_hd__buf_2
*I *163:X O *D sky130_fd_sc_hd__clkbuf_1
*CAP
1 *179:A 0
2 *163:X 0.00121013
3 *44:10 0.00121013
4 out[2] *44:10 0
5 out[5] *44:10 0
6 *148:A1 *44:10 0
7 *151:A *44:10 0.000397223
8 *172:A *44:10 0
9 *174:A *44:10 0
10 *175:A *44:10 0.000258107
11 *177:A *44:10 4.38511e-05
12 *31:12 *44:10 0
*RES
1 *163:X *44:10 44.2286 
2 *44:10 *179:A 9.3 
*END
