*SPEF "ieee 1481-1999"
*DESIGN "ZeroToFiveCounter"
*DATE "11:22:46 Friday May 23, 2025"
*VENDOR "The OpenROAD Project"
*PROGRAM "OpenROAD"
*VERSION "b16bda7e82721d10566ff7e2b68f1ff0be9f9e38"
*DESIGN_FLOW "NAME_SCOPE LOCAL" "PIN_CAP NONE"
*DIVIDER /
*DELIMITER :
*BUS_DELIMITER []
*T_UNIT 1 NS
*C_UNIT 1 PF
*R_UNIT 1 OHM
*L_UNIT 1 HENRY

*NAME_MAP
*3 net10
*4 net11
*5 net12
*6 net13
*7 net14
*8 net15
*9 net16
*10 net9
*11 clk
*12 rst
*13 seg[0]
*14 seg[1]
*15 seg[2]
*16 seg[3]
*17 seg[4]
*18 seg[5]
*19 seg[6]
*20 _000_
*21 _001_
*22 _002_
*23 _003_
*24 _004_
*25 _005_
*26 _006_
*27 _007_
*28 _008_
*29 _009_
*30 _010_
*31 _011_
*32 _012_
*33 _013_
*34 _014_
*35 _015_
*36 _016_
*37 _017_
*38 _018_
*39 _019_
*40 _020_
*41 _021_
*42 _022_
*43 _023_
*44 _024_
*45 _025_
*46 _026_
*47 _027_
*48 _028_
*49 _029_
*50 _030_
*51 _031_
*52 _032_
*53 _033_
*54 _034_
*55 _035_
*56 _036_
*57 _037_
*58 _038_
*59 _039_
*60 _040_
*61 _041_
*62 _042_
*63 _043_
*64 _044_
*65 _045_
*66 _046_
*67 _047_
*68 _048_
*69 _049_
*70 _050_
*71 _051_
*72 _052_
*73 _053_
*74 _054_
*75 _055_
*76 _056_
*77 _057_
*78 _058_
*79 _059_
*80 _060_
*81 _061_
*82 _062_
*83 _063_
*84 _064_
*85 _065_
*86 _066_
*87 _067_
*88 _068_
*89 _069_
*90 _070_
*91 _071_
*92 _072_
*93 _073_
*94 _074_
*95 _075_
*96 _076_
*97 _077_
*98 _078_
*99 _079_
*100 _080_
*101 _081_
*102 _082_
*103 _083_
*104 _084_
*105 _085_
*106 _086_
*107 _087_
*108 _088_
*109 _089_
*110 _090_
*111 _091_
*112 _092_
*113 _093_
*114 _094_
*115 _095_
*116 _096_
*117 _097_
*118 _098_
*119 _099_
*120 _100_
*121 _101_
*122 _102_
*123 _103_
*124 _104_
*125 _105_
*126 _106_
*127 _107_
*128 _108_
*129 _109_
*130 _110_
*131 _111_
*132 _112_
*133 _113_
*134 _114_
*135 _115_
*136 _116_
*137 _117_
*138 _118_
*139 _119_
*140 _120_
*141 _121_
*142 _122_
*143 _123_
*144 _124_
*145 _125_
*146 _126_
*147 _127_
*148 _128_
*149 _129_
*150 _130_
*151 _131_
*152 _132_
*153 _133_
*154 _134_
*155 _135_
*156 _136_
*157 _137_
*158 _138_
*159 _139_
*160 _140_
*161 _141_
*162 _142_
*163 _143_
*164 _144_
*165 _145_
*166 _146_
*167 _147_
*168 _148_
*169 _149_
*170 _150_
*171 _151_
*172 _152_
*173 _153_
*174 _154_
*175 _155_
*176 _156_
*177 _157_
*178 _158_
*179 _159_
*180 _160_
*181 _161_
*182 clknet_0_clk
*183 clknet_2_0__leaf_clk
*184 clknet_2_1__leaf_clk
*185 clknet_2_2__leaf_clk
*186 clknet_2_3__leaf_clk
*187 decoder\.digit\[0\]
*188 decoder\.digit\[1\]
*189 decoder\.digit\[2\]
*190 decoder\.digit\[3\]
*191 net1
*192 net2
*193 net3
*194 net4
*195 net5
*196 net6
*197 net7
*198 net8
*199 one_second_counter\[0\]
*200 one_second_counter\[10\]
*201 one_second_counter\[11\]
*202 one_second_counter\[12\]
*203 one_second_counter\[13\]
*204 one_second_counter\[14\]
*205 one_second_counter\[15\]
*206 one_second_counter\[16\]
*207 one_second_counter\[17\]
*208 one_second_counter\[18\]
*209 one_second_counter\[19\]
*210 one_second_counter\[1\]
*211 one_second_counter\[20\]
*212 one_second_counter\[21\]
*213 one_second_counter\[22\]
*214 one_second_counter\[23\]
*215 one_second_counter\[24\]
*216 one_second_counter\[25\]
*217 one_second_counter\[26\]
*218 one_second_counter\[2\]
*219 one_second_counter\[3\]
*220 one_second_counter\[4\]
*221 one_second_counter\[5\]
*222 one_second_counter\[6\]
*223 one_second_counter\[7\]
*224 one_second_counter\[8\]
*225 one_second_counter\[9\]
*226 one_second_enable
*227 ANTENNA_1
*228 ANTENNA_10
*229 ANTENNA_11
*230 ANTENNA_12
*231 ANTENNA_13
*232 ANTENNA_14
*233 ANTENNA_15
*234 ANTENNA_16
*235 ANTENNA_17
*236 ANTENNA_18
*237 ANTENNA_19
*238 ANTENNA_2
*239 ANTENNA_20
*240 ANTENNA_21
*241 ANTENNA_22
*242 ANTENNA_23
*243 ANTENNA_24
*244 ANTENNA_25
*245 ANTENNA_26
*246 ANTENNA_27
*247 ANTENNA_28
*248 ANTENNA_29
*249 ANTENNA_3
*250 ANTENNA_30
*251 ANTENNA_31
*252 ANTENNA_32
*253 ANTENNA_33
*254 ANTENNA_34
*255 ANTENNA_35
*256 ANTENNA_36
*257 ANTENNA_37
*258 ANTENNA_4
*259 ANTENNA_5
*260 ANTENNA_6
*261 ANTENNA_7
*262 ANTENNA_8
*263 ANTENNA_9
*264 FILLER_0_0_109
*265 FILLER_0_0_113
*266 FILLER_0_0_125
*267 FILLER_0_0_137
*268 FILLER_0_0_141
*269 FILLER_0_0_15
*270 FILLER_0_0_153
*271 FILLER_0_0_165
*272 FILLER_0_0_169
*273 FILLER_0_0_181
*274 FILLER_0_0_193
*275 FILLER_0_0_197
*276 FILLER_0_0_209
*277 FILLER_0_0_221
*278 FILLER_0_0_225
*279 FILLER_0_0_237
*280 FILLER_0_0_249
*281 FILLER_0_0_253
*282 FILLER_0_0_265
*283 FILLER_0_0_27
*284 FILLER_0_0_277
*285 FILLER_0_0_281
*286 FILLER_0_0_29
*287 FILLER_0_0_293
*288 FILLER_0_0_3
*289 FILLER_0_0_305
*290 FILLER_0_0_309
*291 FILLER_0_0_321
*292 FILLER_0_0_333
*293 FILLER_0_0_337
*294 FILLER_0_0_349
*295 FILLER_0_0_361
*296 FILLER_0_0_365
*297 FILLER_0_0_377
*298 FILLER_0_0_389
*299 FILLER_0_0_393
*300 FILLER_0_0_405
*301 FILLER_0_0_41
*302 FILLER_0_0_53
*303 FILLER_0_0_57
*304 FILLER_0_0_69
*305 FILLER_0_0_81
*306 FILLER_0_0_85
*307 FILLER_0_0_97
*308 FILLER_0_10_109
*309 FILLER_0_10_121
*310 FILLER_0_10_133
*311 FILLER_0_10_139
*312 FILLER_0_10_141
*313 FILLER_0_10_15
*314 FILLER_0_10_153
*315 FILLER_0_10_165
*316 FILLER_0_10_177
*317 FILLER_0_10_189
*318 FILLER_0_10_195
*319 FILLER_0_10_197
*320 FILLER_0_10_209
*321 FILLER_0_10_221
*322 FILLER_0_10_233
*323 FILLER_0_10_245
*324 FILLER_0_10_251
*325 FILLER_0_10_258
*326 FILLER_0_10_27
*327 FILLER_0_10_270
*328 FILLER_0_10_282
*329 FILLER_0_10_29
*330 FILLER_0_10_294
*331 FILLER_0_10_3
*332 FILLER_0_10_306
*333 FILLER_0_10_309
*334 FILLER_0_10_321
*335 FILLER_0_10_333
*336 FILLER_0_10_345
*337 FILLER_0_10_357
*338 FILLER_0_10_363
*339 FILLER_0_10_365
*340 FILLER_0_10_377
*341 FILLER_0_10_389
*342 FILLER_0_10_400
*343 FILLER_0_10_41
*344 FILLER_0_10_53
*345 FILLER_0_10_59
*346 FILLER_0_10_64
*347 FILLER_0_10_76
*348 FILLER_0_10_85
*349 FILLER_0_10_97
*350 FILLER_0_11_105
*351 FILLER_0_11_111
*352 FILLER_0_11_113
*353 FILLER_0_11_125
*354 FILLER_0_11_132
*355 FILLER_0_11_144
*356 FILLER_0_11_15
*357 FILLER_0_11_156
*358 FILLER_0_11_169
*359 FILLER_0_11_181
*360 FILLER_0_11_193
*361 FILLER_0_11_205
*362 FILLER_0_11_217
*363 FILLER_0_11_223
*364 FILLER_0_11_225
*365 FILLER_0_11_237
*366 FILLER_0_11_254
*367 FILLER_0_11_266
*368 FILLER_0_11_27
*369 FILLER_0_11_278
*370 FILLER_0_11_281
*371 FILLER_0_11_293
*372 FILLER_0_11_3
*373 FILLER_0_11_305
*374 FILLER_0_11_317
*375 FILLER_0_11_329
*376 FILLER_0_11_335
*377 FILLER_0_11_337
*378 FILLER_0_11_349
*379 FILLER_0_11_361
*380 FILLER_0_11_373
*381 FILLER_0_11_377
*382 FILLER_0_11_383
*383 FILLER_0_11_39
*384 FILLER_0_11_391
*385 FILLER_0_11_393
*386 FILLER_0_11_404
*387 FILLER_0_11_51
*388 FILLER_0_11_55
*389 FILLER_0_11_57
*390 FILLER_0_11_69
*391 FILLER_0_11_81
*392 FILLER_0_11_93
*393 FILLER_0_12_109
*394 FILLER_0_12_121
*395 FILLER_0_12_133
*396 FILLER_0_12_139
*397 FILLER_0_12_147
*398 FILLER_0_12_15
*399 FILLER_0_12_159
*400 FILLER_0_12_171
*401 FILLER_0_12_183
*402 FILLER_0_12_195
*403 FILLER_0_12_197
*404 FILLER_0_12_209
*405 FILLER_0_12_221
*406 FILLER_0_12_233
*407 FILLER_0_12_245
*408 FILLER_0_12_251
*409 FILLER_0_12_253
*410 FILLER_0_12_265
*411 FILLER_0_12_27
*412 FILLER_0_12_277
*413 FILLER_0_12_289
*414 FILLER_0_12_29
*415 FILLER_0_12_3
*416 FILLER_0_12_301
*417 FILLER_0_12_307
*418 FILLER_0_12_309
*419 FILLER_0_12_321
*420 FILLER_0_12_333
*421 FILLER_0_12_345
*422 FILLER_0_12_357
*423 FILLER_0_12_363
*424 FILLER_0_12_365
*425 FILLER_0_12_377
*426 FILLER_0_12_388
*427 FILLER_0_12_400
*428 FILLER_0_12_406
*429 FILLER_0_12_41
*430 FILLER_0_12_53
*431 FILLER_0_12_65
*432 FILLER_0_12_77
*433 FILLER_0_12_83
*434 FILLER_0_12_85
*435 FILLER_0_12_97
*436 FILLER_0_13_105
*437 FILLER_0_13_111
*438 FILLER_0_13_113
*439 FILLER_0_13_125
*440 FILLER_0_13_129
*441 FILLER_0_13_133
*442 FILLER_0_13_148
*443 FILLER_0_13_15
*444 FILLER_0_13_160
*445 FILLER_0_13_169
*446 FILLER_0_13_177
*447 FILLER_0_13_182
*448 FILLER_0_13_194
*449 FILLER_0_13_206
*450 FILLER_0_13_21
*451 FILLER_0_13_218
*452 FILLER_0_13_225
*453 FILLER_0_13_237
*454 FILLER_0_13_249
*455 FILLER_0_13_25
*456 FILLER_0_13_261
*457 FILLER_0_13_273
*458 FILLER_0_13_279
*459 FILLER_0_13_291
*460 FILLER_0_13_3
*461 FILLER_0_13_303
*462 FILLER_0_13_315
*463 FILLER_0_13_327
*464 FILLER_0_13_33
*465 FILLER_0_13_335
*466 FILLER_0_13_337
*467 FILLER_0_13_349
*468 FILLER_0_13_361
*469 FILLER_0_13_37
*470 FILLER_0_13_373
*471 FILLER_0_13_379
*472 FILLER_0_13_382
*473 FILLER_0_13_390
*474 FILLER_0_13_393
*475 FILLER_0_13_400
*476 FILLER_0_13_406
*477 FILLER_0_13_49
*478 FILLER_0_13_55
*479 FILLER_0_13_57
*480 FILLER_0_13_69
*481 FILLER_0_13_81
*482 FILLER_0_13_93
*483 FILLER_0_14_109
*484 FILLER_0_14_121
*485 FILLER_0_14_133
*486 FILLER_0_14_139
*487 FILLER_0_14_141
*488 FILLER_0_14_15
*489 FILLER_0_14_153
*490 FILLER_0_14_165
*491 FILLER_0_14_177
*492 FILLER_0_14_189
*493 FILLER_0_14_195
*494 FILLER_0_14_197
*495 FILLER_0_14_209
*496 FILLER_0_14_221
*497 FILLER_0_14_233
*498 FILLER_0_14_245
*499 FILLER_0_14_251
*500 FILLER_0_14_260
*501 FILLER_0_14_27
*502 FILLER_0_14_272
*503 FILLER_0_14_284
*504 FILLER_0_14_29
*505 FILLER_0_14_296
*506 FILLER_0_14_3
*507 FILLER_0_14_309
*508 FILLER_0_14_321
*509 FILLER_0_14_333
*510 FILLER_0_14_345
*511 FILLER_0_14_353
*512 FILLER_0_14_362
*513 FILLER_0_14_365
*514 FILLER_0_14_376
*515 FILLER_0_14_388
*516 FILLER_0_14_400
*517 FILLER_0_14_406
*518 FILLER_0_14_41
*519 FILLER_0_14_53
*520 FILLER_0_14_65
*521 FILLER_0_14_77
*522 FILLER_0_14_83
*523 FILLER_0_14_85
*524 FILLER_0_14_97
*525 FILLER_0_15_105
*526 FILLER_0_15_111
*527 FILLER_0_15_113
*528 FILLER_0_15_125
*529 FILLER_0_15_137
*530 FILLER_0_15_149
*531 FILLER_0_15_15
*532 FILLER_0_15_161
*533 FILLER_0_15_167
*534 FILLER_0_15_169
*535 FILLER_0_15_181
*536 FILLER_0_15_193
*537 FILLER_0_15_205
*538 FILLER_0_15_217
*539 FILLER_0_15_223
*540 FILLER_0_15_225
*541 FILLER_0_15_237
*542 FILLER_0_15_249
*543 FILLER_0_15_261
*544 FILLER_0_15_267
*545 FILLER_0_15_27
*546 FILLER_0_15_271
*547 FILLER_0_15_279
*548 FILLER_0_15_281
*549 FILLER_0_15_293
*550 FILLER_0_15_3
*551 FILLER_0_15_305
*552 FILLER_0_15_317
*553 FILLER_0_15_329
*554 FILLER_0_15_335
*555 FILLER_0_15_337
*556 FILLER_0_15_349
*557 FILLER_0_15_361
*558 FILLER_0_15_373
*559 FILLER_0_15_385
*560 FILLER_0_15_39
*561 FILLER_0_15_391
*562 FILLER_0_15_393
*563 FILLER_0_15_401
*564 FILLER_0_15_51
*565 FILLER_0_15_55
*566 FILLER_0_15_57
*567 FILLER_0_15_69
*568 FILLER_0_15_81
*569 FILLER_0_15_93
*570 FILLER_0_16_109
*571 FILLER_0_16_121
*572 FILLER_0_16_133
*573 FILLER_0_16_139
*574 FILLER_0_16_141
*575 FILLER_0_16_154
*576 FILLER_0_16_166
*577 FILLER_0_16_178
*578 FILLER_0_16_190
*579 FILLER_0_16_197
*580 FILLER_0_16_209
*581 FILLER_0_16_21
*582 FILLER_0_16_221
*583 FILLER_0_16_233
*584 FILLER_0_16_245
*585 FILLER_0_16_251
*586 FILLER_0_16_253
*587 FILLER_0_16_265
*588 FILLER_0_16_27
*589 FILLER_0_16_277
*590 FILLER_0_16_289
*591 FILLER_0_16_29
*592 FILLER_0_16_301
*593 FILLER_0_16_307
*594 FILLER_0_16_309
*595 FILLER_0_16_321
*596 FILLER_0_16_333
*597 FILLER_0_16_345
*598 FILLER_0_16_357
*599 FILLER_0_16_363
*600 FILLER_0_16_365
*601 FILLER_0_16_37
*602 FILLER_0_16_377
*603 FILLER_0_16_385
*604 FILLER_0_16_390
*605 FILLER_0_16_397
*606 FILLER_0_16_40
*607 FILLER_0_16_405
*608 FILLER_0_16_47
*609 FILLER_0_16_59
*610 FILLER_0_16_71
*611 FILLER_0_16_83
*612 FILLER_0_16_85
*613 FILLER_0_16_9
*614 FILLER_0_16_97
*615 FILLER_0_17_105
*616 FILLER_0_17_111
*617 FILLER_0_17_113
*618 FILLER_0_17_117
*619 FILLER_0_17_120
*620 FILLER_0_17_145
*621 FILLER_0_17_15
*622 FILLER_0_17_157
*623 FILLER_0_17_165
*624 FILLER_0_17_169
*625 FILLER_0_17_181
*626 FILLER_0_17_193
*627 FILLER_0_17_205
*628 FILLER_0_17_217
*629 FILLER_0_17_223
*630 FILLER_0_17_225
*631 FILLER_0_17_237
*632 FILLER_0_17_249
*633 FILLER_0_17_261
*634 FILLER_0_17_27
*635 FILLER_0_17_273
*636 FILLER_0_17_279
*637 FILLER_0_17_281
*638 FILLER_0_17_293
*639 FILLER_0_17_3
*640 FILLER_0_17_305
*641 FILLER_0_17_317
*642 FILLER_0_17_329
*643 FILLER_0_17_335
*644 FILLER_0_17_337
*645 FILLER_0_17_349
*646 FILLER_0_17_361
*647 FILLER_0_17_373
*648 FILLER_0_17_385
*649 FILLER_0_17_39
*650 FILLER_0_17_391
*651 FILLER_0_17_393
*652 FILLER_0_17_405
*653 FILLER_0_17_51
*654 FILLER_0_17_55
*655 FILLER_0_17_57
*656 FILLER_0_17_69
*657 FILLER_0_17_81
*658 FILLER_0_17_93
*659 FILLER_0_18_109
*660 FILLER_0_18_121
*661 FILLER_0_18_133
*662 FILLER_0_18_139
*663 FILLER_0_18_141
*664 FILLER_0_18_15
*665 FILLER_0_18_153
*666 FILLER_0_18_165
*667 FILLER_0_18_177
*668 FILLER_0_18_189
*669 FILLER_0_18_195
*670 FILLER_0_18_197
*671 FILLER_0_18_212
*672 FILLER_0_18_223
*673 FILLER_0_18_235
*674 FILLER_0_18_247
*675 FILLER_0_18_251
*676 FILLER_0_18_253
*677 FILLER_0_18_265
*678 FILLER_0_18_27
*679 FILLER_0_18_277
*680 FILLER_0_18_289
*681 FILLER_0_18_29
*682 FILLER_0_18_3
*683 FILLER_0_18_301
*684 FILLER_0_18_307
*685 FILLER_0_18_309
*686 FILLER_0_18_313
*687 FILLER_0_18_325
*688 FILLER_0_18_337
*689 FILLER_0_18_349
*690 FILLER_0_18_361
*691 FILLER_0_18_365
*692 FILLER_0_18_377
*693 FILLER_0_18_389
*694 FILLER_0_18_404
*695 FILLER_0_18_41
*696 FILLER_0_18_53
*697 FILLER_0_18_65
*698 FILLER_0_18_77
*699 FILLER_0_18_83
*700 FILLER_0_18_85
*701 FILLER_0_18_97
*702 FILLER_0_19_109
*703 FILLER_0_19_119
*704 FILLER_0_19_131
*705 FILLER_0_19_143
*706 FILLER_0_19_15
*707 FILLER_0_19_155
*708 FILLER_0_19_161
*709 FILLER_0_19_165
*710 FILLER_0_19_169
*711 FILLER_0_19_181
*712 FILLER_0_19_193
*713 FILLER_0_19_205
*714 FILLER_0_19_217
*715 FILLER_0_19_223
*716 FILLER_0_19_225
*717 FILLER_0_19_237
*718 FILLER_0_19_249
*719 FILLER_0_19_261
*720 FILLER_0_19_27
*721 FILLER_0_19_273
*722 FILLER_0_19_279
*723 FILLER_0_19_281
*724 FILLER_0_19_293
*725 FILLER_0_19_3
*726 FILLER_0_19_305
*727 FILLER_0_19_317
*728 FILLER_0_19_329
*729 FILLER_0_19_335
*730 FILLER_0_19_360
*731 FILLER_0_19_372
*732 FILLER_0_19_379
*733 FILLER_0_19_39
*734 FILLER_0_19_391
*735 FILLER_0_19_393
*736 FILLER_0_19_399
*737 FILLER_0_19_402
*738 FILLER_0_19_51
*739 FILLER_0_19_55
*740 FILLER_0_19_57
*741 FILLER_0_19_81
*742 FILLER_0_19_85
*743 FILLER_0_19_97
*744 FILLER_0_1_108
*745 FILLER_0_1_113
*746 FILLER_0_1_125
*747 FILLER_0_1_137
*748 FILLER_0_1_149
*749 FILLER_0_1_15
*750 FILLER_0_1_161
*751 FILLER_0_1_167
*752 FILLER_0_1_169
*753 FILLER_0_1_181
*754 FILLER_0_1_193
*755 FILLER_0_1_205
*756 FILLER_0_1_217
*757 FILLER_0_1_223
*758 FILLER_0_1_225
*759 FILLER_0_1_237
*760 FILLER_0_1_249
*761 FILLER_0_1_261
*762 FILLER_0_1_27
*763 FILLER_0_1_273
*764 FILLER_0_1_279
*765 FILLER_0_1_281
*766 FILLER_0_1_293
*767 FILLER_0_1_3
*768 FILLER_0_1_305
*769 FILLER_0_1_317
*770 FILLER_0_1_329
*771 FILLER_0_1_335
*772 FILLER_0_1_337
*773 FILLER_0_1_349
*774 FILLER_0_1_361
*775 FILLER_0_1_373
*776 FILLER_0_1_385
*777 FILLER_0_1_39
*778 FILLER_0_1_391
*779 FILLER_0_1_393
*780 FILLER_0_1_399
*781 FILLER_0_1_402
*782 FILLER_0_1_51
*783 FILLER_0_1_55
*784 FILLER_0_1_57
*785 FILLER_0_1_69
*786 FILLER_0_1_84
*787 FILLER_0_1_96
*788 FILLER_0_20_109
*789 FILLER_0_20_121
*790 FILLER_0_20_133
*791 FILLER_0_20_139
*792 FILLER_0_20_141
*793 FILLER_0_20_15
*794 FILLER_0_20_153
*795 FILLER_0_20_165
*796 FILLER_0_20_177
*797 FILLER_0_20_189
*798 FILLER_0_20_195
*799 FILLER_0_20_205
*800 FILLER_0_20_209
*801 FILLER_0_20_221
*802 FILLER_0_20_233
*803 FILLER_0_20_245
*804 FILLER_0_20_251
*805 FILLER_0_20_253
*806 FILLER_0_20_265
*807 FILLER_0_20_27
*808 FILLER_0_20_277
*809 FILLER_0_20_289
*810 FILLER_0_20_29
*811 FILLER_0_20_3
*812 FILLER_0_20_301
*813 FILLER_0_20_307
*814 FILLER_0_20_309
*815 FILLER_0_20_321
*816 FILLER_0_20_333
*817 FILLER_0_20_345
*818 FILLER_0_20_351
*819 FILLER_0_20_360
*820 FILLER_0_20_388
*821 FILLER_0_20_400
*822 FILLER_0_20_406
*823 FILLER_0_20_41
*824 FILLER_0_20_53
*825 FILLER_0_20_65
*826 FILLER_0_20_77
*827 FILLER_0_20_83
*828 FILLER_0_20_85
*829 FILLER_0_20_97
*830 FILLER_0_21_111
*831 FILLER_0_21_113
*832 FILLER_0_21_125
*833 FILLER_0_21_137
*834 FILLER_0_21_149
*835 FILLER_0_21_15
*836 FILLER_0_21_161
*837 FILLER_0_21_167
*838 FILLER_0_21_169
*839 FILLER_0_21_181
*840 FILLER_0_21_193
*841 FILLER_0_21_205
*842 FILLER_0_21_217
*843 FILLER_0_21_223
*844 FILLER_0_21_225
*845 FILLER_0_21_237
*846 FILLER_0_21_249
*847 FILLER_0_21_258
*848 FILLER_0_21_27
*849 FILLER_0_21_270
*850 FILLER_0_21_278
*851 FILLER_0_21_281
*852 FILLER_0_21_293
*853 FILLER_0_21_3
*854 FILLER_0_21_305
*855 FILLER_0_21_310
*856 FILLER_0_21_322
*857 FILLER_0_21_334
*858 FILLER_0_21_337
*859 FILLER_0_21_349
*860 FILLER_0_21_361
*861 FILLER_0_21_365
*862 FILLER_0_21_374
*863 FILLER_0_21_386
*864 FILLER_0_21_39
*865 FILLER_0_21_393
*866 FILLER_0_21_405
*867 FILLER_0_21_51
*868 FILLER_0_21_55
*869 FILLER_0_21_57
*870 FILLER_0_21_69
*871 FILLER_0_21_81
*872 FILLER_0_21_85
*873 FILLER_0_21_99
*874 FILLER_0_22_105
*875 FILLER_0_22_117
*876 FILLER_0_22_129
*877 FILLER_0_22_137
*878 FILLER_0_22_141
*879 FILLER_0_22_15
*880 FILLER_0_22_153
*881 FILLER_0_22_165
*882 FILLER_0_22_177
*883 FILLER_0_22_189
*884 FILLER_0_22_195
*885 FILLER_0_22_197
*886 FILLER_0_22_209
*887 FILLER_0_22_221
*888 FILLER_0_22_225
*889 FILLER_0_22_232
*890 FILLER_0_22_244
*891 FILLER_0_22_253
*892 FILLER_0_22_265
*893 FILLER_0_22_27
*894 FILLER_0_22_277
*895 FILLER_0_22_289
*896 FILLER_0_22_29
*897 FILLER_0_22_3
*898 FILLER_0_22_301
*899 FILLER_0_22_307
*900 FILLER_0_22_309
*901 FILLER_0_22_321
*902 FILLER_0_22_333
*903 FILLER_0_22_345
*904 FILLER_0_22_357
*905 FILLER_0_22_363
*906 FILLER_0_22_365
*907 FILLER_0_22_377
*908 FILLER_0_22_389
*909 FILLER_0_22_401
*910 FILLER_0_22_41
*911 FILLER_0_22_53
*912 FILLER_0_22_65
*913 FILLER_0_22_77
*914 FILLER_0_22_83
*915 FILLER_0_22_85
*916 FILLER_0_22_97
*917 FILLER_0_23_113
*918 FILLER_0_23_125
*919 FILLER_0_23_137
*920 FILLER_0_23_149
*921 FILLER_0_23_15
*922 FILLER_0_23_161
*923 FILLER_0_23_167
*924 FILLER_0_23_169
*925 FILLER_0_23_181
*926 FILLER_0_23_193
*927 FILLER_0_23_205
*928 FILLER_0_23_217
*929 FILLER_0_23_223
*930 FILLER_0_23_225
*931 FILLER_0_23_237
*932 FILLER_0_23_249
*933 FILLER_0_23_261
*934 FILLER_0_23_269
*935 FILLER_0_23_27
*936 FILLER_0_23_277
*937 FILLER_0_23_281
*938 FILLER_0_23_293
*939 FILLER_0_23_3
*940 FILLER_0_23_305
*941 FILLER_0_23_313
*942 FILLER_0_23_328
*943 FILLER_0_23_337
*944 FILLER_0_23_349
*945 FILLER_0_23_361
*946 FILLER_0_23_373
*947 FILLER_0_23_385
*948 FILLER_0_23_39
*949 FILLER_0_23_393
*950 FILLER_0_23_405
*951 FILLER_0_23_51
*952 FILLER_0_23_55
*953 FILLER_0_23_57
*954 FILLER_0_23_69
*955 FILLER_0_23_81
*956 FILLER_0_24_109
*957 FILLER_0_24_121
*958 FILLER_0_24_133
*959 FILLER_0_24_139
*960 FILLER_0_24_141
*961 FILLER_0_24_15
*962 FILLER_0_24_166
*963 FILLER_0_24_178
*964 FILLER_0_24_190
*965 FILLER_0_24_197
*966 FILLER_0_24_209
*967 FILLER_0_24_221
*968 FILLER_0_24_236
*969 FILLER_0_24_248
*970 FILLER_0_24_253
*971 FILLER_0_24_265
*972 FILLER_0_24_27
*973 FILLER_0_24_273
*974 FILLER_0_24_278
*975 FILLER_0_24_29
*976 FILLER_0_24_290
*977 FILLER_0_24_3
*978 FILLER_0_24_302
*979 FILLER_0_24_309
*980 FILLER_0_24_321
*981 FILLER_0_24_333
*982 FILLER_0_24_345
*983 FILLER_0_24_357
*984 FILLER_0_24_363
*985 FILLER_0_24_365
*986 FILLER_0_24_377
*987 FILLER_0_24_389
*988 FILLER_0_24_401
*989 FILLER_0_24_41
*990 FILLER_0_24_49
*991 FILLER_0_24_53
*992 FILLER_0_24_65
*993 FILLER_0_24_77
*994 FILLER_0_24_83
*995 FILLER_0_24_85
*996 FILLER_0_24_97
*997 FILLER_0_25_108
*998 FILLER_0_25_118
*999 FILLER_0_25_130
*1000 FILLER_0_25_142
*1001 FILLER_0_25_15
*1002 FILLER_0_25_154
*1003 FILLER_0_25_166
*1004 FILLER_0_25_169
*1005 FILLER_0_25_181
*1006 FILLER_0_25_193
*1007 FILLER_0_25_205
*1008 FILLER_0_25_217
*1009 FILLER_0_25_223
*1010 FILLER_0_25_225
*1011 FILLER_0_25_237
*1012 FILLER_0_25_249
*1013 FILLER_0_25_261
*1014 FILLER_0_25_27
*1015 FILLER_0_25_273
*1016 FILLER_0_25_279
*1017 FILLER_0_25_281
*1018 FILLER_0_25_293
*1019 FILLER_0_25_3
*1020 FILLER_0_25_305
*1021 FILLER_0_25_317
*1022 FILLER_0_25_329
*1023 FILLER_0_25_335
*1024 FILLER_0_25_337
*1025 FILLER_0_25_349
*1026 FILLER_0_25_36
*1027 FILLER_0_25_361
*1028 FILLER_0_25_373
*1029 FILLER_0_25_385
*1030 FILLER_0_25_391
*1031 FILLER_0_25_393
*1032 FILLER_0_25_405
*1033 FILLER_0_25_48
*1034 FILLER_0_25_60
*1035 FILLER_0_25_72
*1036 FILLER_0_25_84
*1037 FILLER_0_25_96
*1038 FILLER_0_26_109
*1039 FILLER_0_26_117
*1040 FILLER_0_26_15
*1041 FILLER_0_26_161
*1042 FILLER_0_26_173
*1043 FILLER_0_26_185
*1044 FILLER_0_26_193
*1045 FILLER_0_26_197
*1046 FILLER_0_26_207
*1047 FILLER_0_26_219
*1048 FILLER_0_26_231
*1049 FILLER_0_26_243
*1050 FILLER_0_26_251
*1051 FILLER_0_26_253
*1052 FILLER_0_26_265
*1053 FILLER_0_26_27
*1054 FILLER_0_26_277
*1055 FILLER_0_26_289
*1056 FILLER_0_26_29
*1057 FILLER_0_26_3
*1058 FILLER_0_26_301
*1059 FILLER_0_26_307
*1060 FILLER_0_26_309
*1061 FILLER_0_26_321
*1062 FILLER_0_26_333
*1063 FILLER_0_26_345
*1064 FILLER_0_26_357
*1065 FILLER_0_26_363
*1066 FILLER_0_26_365
*1067 FILLER_0_26_377
*1068 FILLER_0_26_389
*1069 FILLER_0_26_401
*1070 FILLER_0_26_41
*1071 FILLER_0_26_53
*1072 FILLER_0_26_65
*1073 FILLER_0_26_71
*1074 FILLER_0_26_83
*1075 FILLER_0_26_85
*1076 FILLER_0_26_97
*1077 FILLER_0_27_106
*1078 FILLER_0_27_113
*1079 FILLER_0_27_121
*1080 FILLER_0_27_147
*1081 FILLER_0_27_15
*1082 FILLER_0_27_159
*1083 FILLER_0_27_167
*1084 FILLER_0_27_218
*1085 FILLER_0_27_225
*1086 FILLER_0_27_237
*1087 FILLER_0_27_249
*1088 FILLER_0_27_261
*1089 FILLER_0_27_27
*1090 FILLER_0_27_273
*1091 FILLER_0_27_279
*1092 FILLER_0_27_281
*1093 FILLER_0_27_293
*1094 FILLER_0_27_3
*1095 FILLER_0_27_305
*1096 FILLER_0_27_317
*1097 FILLER_0_27_329
*1098 FILLER_0_27_335
*1099 FILLER_0_27_337
*1100 FILLER_0_27_349
*1101 FILLER_0_27_373
*1102 FILLER_0_27_385
*1103 FILLER_0_27_39
*1104 FILLER_0_27_391
*1105 FILLER_0_27_393
*1106 FILLER_0_27_405
*1107 FILLER_0_27_51
*1108 FILLER_0_27_55
*1109 FILLER_0_27_57
*1110 FILLER_0_27_82
*1111 FILLER_0_27_94
*1112 FILLER_0_28_101
*1113 FILLER_0_28_11
*1114 FILLER_0_28_113
*1115 FILLER_0_28_121
*1116 FILLER_0_28_126
*1117 FILLER_0_28_138
*1118 FILLER_0_28_141
*1119 FILLER_0_28_153
*1120 FILLER_0_28_165
*1121 FILLER_0_28_177
*1122 FILLER_0_28_18
*1123 FILLER_0_28_189
*1124 FILLER_0_28_195
*1125 FILLER_0_28_197
*1126 FILLER_0_28_209
*1127 FILLER_0_28_223
*1128 FILLER_0_28_235
*1129 FILLER_0_28_247
*1130 FILLER_0_28_251
*1131 FILLER_0_28_253
*1132 FILLER_0_28_26
*1133 FILLER_0_28_265
*1134 FILLER_0_28_277
*1135 FILLER_0_28_289
*1136 FILLER_0_28_29
*1137 FILLER_0_28_3
*1138 FILLER_0_28_301
*1139 FILLER_0_28_307
*1140 FILLER_0_28_309
*1141 FILLER_0_28_321
*1142 FILLER_0_28_33
*1143 FILLER_0_28_333
*1144 FILLER_0_28_341
*1145 FILLER_0_28_348
*1146 FILLER_0_28_36
*1147 FILLER_0_28_360
*1148 FILLER_0_28_365
*1149 FILLER_0_28_377
*1150 FILLER_0_28_389
*1151 FILLER_0_28_46
*1152 FILLER_0_28_54
*1153 FILLER_0_28_60
*1154 FILLER_0_28_72
*1155 FILLER_0_28_85
*1156 FILLER_0_28_93
*1157 FILLER_0_29_105
*1158 FILLER_0_29_111
*1159 FILLER_0_29_113
*1160 FILLER_0_29_125
*1161 FILLER_0_29_137
*1162 FILLER_0_29_149
*1163 FILLER_0_29_15
*1164 FILLER_0_29_161
*1165 FILLER_0_29_167
*1166 FILLER_0_29_169
*1167 FILLER_0_29_181
*1168 FILLER_0_29_193
*1169 FILLER_0_29_205
*1170 FILLER_0_29_217
*1171 FILLER_0_29_223
*1172 FILLER_0_29_225
*1173 FILLER_0_29_233
*1174 FILLER_0_29_238
*1175 FILLER_0_29_263
*1176 FILLER_0_29_27
*1177 FILLER_0_29_275
*1178 FILLER_0_29_279
*1179 FILLER_0_29_3
*1180 FILLER_0_29_301
*1181 FILLER_0_29_313
*1182 FILLER_0_29_325
*1183 FILLER_0_29_333
*1184 FILLER_0_29_337
*1185 FILLER_0_29_349
*1186 FILLER_0_29_361
*1187 FILLER_0_29_373
*1188 FILLER_0_29_385
*1189 FILLER_0_29_39
*1190 FILLER_0_29_391
*1191 FILLER_0_29_393
*1192 FILLER_0_29_405
*1193 FILLER_0_29_51
*1194 FILLER_0_29_55
*1195 FILLER_0_29_57
*1196 FILLER_0_29_69
*1197 FILLER_0_29_81
*1198 FILLER_0_29_93
*1199 FILLER_0_2_109
*1200 FILLER_0_2_121
*1201 FILLER_0_2_133
*1202 FILLER_0_2_139
*1203 FILLER_0_2_141
*1204 FILLER_0_2_147
*1205 FILLER_0_2_15
*1206 FILLER_0_2_151
*1207 FILLER_0_2_163
*1208 FILLER_0_2_175
*1209 FILLER_0_2_187
*1210 FILLER_0_2_195
*1211 FILLER_0_2_197
*1212 FILLER_0_2_209
*1213 FILLER_0_2_221
*1214 FILLER_0_2_233
*1215 FILLER_0_2_245
*1216 FILLER_0_2_251
*1217 FILLER_0_2_253
*1218 FILLER_0_2_265
*1219 FILLER_0_2_27
*1220 FILLER_0_2_277
*1221 FILLER_0_2_289
*1222 FILLER_0_2_29
*1223 FILLER_0_2_3
*1224 FILLER_0_2_301
*1225 FILLER_0_2_307
*1226 FILLER_0_2_309
*1227 FILLER_0_2_321
*1228 FILLER_0_2_333
*1229 FILLER_0_2_345
*1230 FILLER_0_2_357
*1231 FILLER_0_2_363
*1232 FILLER_0_2_365
*1233 FILLER_0_2_377
*1234 FILLER_0_2_389
*1235 FILLER_0_2_401
*1236 FILLER_0_2_41
*1237 FILLER_0_2_53
*1238 FILLER_0_2_65
*1239 FILLER_0_2_77
*1240 FILLER_0_2_83
*1241 FILLER_0_2_85
*1242 FILLER_0_2_97
*1243 FILLER_0_30_109
*1244 FILLER_0_30_121
*1245 FILLER_0_30_133
*1246 FILLER_0_30_139
*1247 FILLER_0_30_141
*1248 FILLER_0_30_15
*1249 FILLER_0_30_153
*1250 FILLER_0_30_165
*1251 FILLER_0_30_177
*1252 FILLER_0_30_189
*1253 FILLER_0_30_195
*1254 FILLER_0_30_197
*1255 FILLER_0_30_209
*1256 FILLER_0_30_221
*1257 FILLER_0_30_233
*1258 FILLER_0_30_245
*1259 FILLER_0_30_251
*1260 FILLER_0_30_253
*1261 FILLER_0_30_265
*1262 FILLER_0_30_27
*1263 FILLER_0_30_277
*1264 FILLER_0_30_289
*1265 FILLER_0_30_29
*1266 FILLER_0_30_3
*1267 FILLER_0_30_301
*1268 FILLER_0_30_307
*1269 FILLER_0_30_309
*1270 FILLER_0_30_321
*1271 FILLER_0_30_333
*1272 FILLER_0_30_345
*1273 FILLER_0_30_357
*1274 FILLER_0_30_363
*1275 FILLER_0_30_365
*1276 FILLER_0_30_377
*1277 FILLER_0_30_389
*1278 FILLER_0_30_401
*1279 FILLER_0_30_41
*1280 FILLER_0_30_53
*1281 FILLER_0_30_65
*1282 FILLER_0_30_77
*1283 FILLER_0_30_83
*1284 FILLER_0_30_85
*1285 FILLER_0_30_97
*1286 FILLER_0_31_105
*1287 FILLER_0_31_111
*1288 FILLER_0_31_113
*1289 FILLER_0_31_125
*1290 FILLER_0_31_137
*1291 FILLER_0_31_149
*1292 FILLER_0_31_15
*1293 FILLER_0_31_161
*1294 FILLER_0_31_167
*1295 FILLER_0_31_169
*1296 FILLER_0_31_181
*1297 FILLER_0_31_193
*1298 FILLER_0_31_200
*1299 FILLER_0_31_212
*1300 FILLER_0_31_225
*1301 FILLER_0_31_237
*1302 FILLER_0_31_249
*1303 FILLER_0_31_261
*1304 FILLER_0_31_27
*1305 FILLER_0_31_273
*1306 FILLER_0_31_279
*1307 FILLER_0_31_281
*1308 FILLER_0_31_293
*1309 FILLER_0_31_3
*1310 FILLER_0_31_309
*1311 FILLER_0_31_321
*1312 FILLER_0_31_333
*1313 FILLER_0_31_342
*1314 FILLER_0_31_354
*1315 FILLER_0_31_366
*1316 FILLER_0_31_378
*1317 FILLER_0_31_39
*1318 FILLER_0_31_390
*1319 FILLER_0_31_393
*1320 FILLER_0_31_405
*1321 FILLER_0_31_51
*1322 FILLER_0_31_55
*1323 FILLER_0_31_57
*1324 FILLER_0_31_69
*1325 FILLER_0_31_81
*1326 FILLER_0_31_93
*1327 FILLER_0_32_109
*1328 FILLER_0_32_121
*1329 FILLER_0_32_133
*1330 FILLER_0_32_139
*1331 FILLER_0_32_141
*1332 FILLER_0_32_15
*1333 FILLER_0_32_153
*1334 FILLER_0_32_165
*1335 FILLER_0_32_170
*1336 FILLER_0_32_182
*1337 FILLER_0_32_194
*1338 FILLER_0_32_197
*1339 FILLER_0_32_209
*1340 FILLER_0_32_221
*1341 FILLER_0_32_233
*1342 FILLER_0_32_245
*1343 FILLER_0_32_251
*1344 FILLER_0_32_253
*1345 FILLER_0_32_265
*1346 FILLER_0_32_27
*1347 FILLER_0_32_277
*1348 FILLER_0_32_289
*1349 FILLER_0_32_29
*1350 FILLER_0_32_294
*1351 FILLER_0_32_3
*1352 FILLER_0_32_306
*1353 FILLER_0_32_309
*1354 FILLER_0_32_321
*1355 FILLER_0_32_327
*1356 FILLER_0_32_335
*1357 FILLER_0_32_344
*1358 FILLER_0_32_356
*1359 FILLER_0_32_365
*1360 FILLER_0_32_377
*1361 FILLER_0_32_389
*1362 FILLER_0_32_401
*1363 FILLER_0_32_41
*1364 FILLER_0_32_53
*1365 FILLER_0_32_65
*1366 FILLER_0_32_82
*1367 FILLER_0_32_85
*1368 FILLER_0_32_97
*1369 FILLER_0_33_101
*1370 FILLER_0_33_105
*1371 FILLER_0_33_110
*1372 FILLER_0_33_113
*1373 FILLER_0_33_125
*1374 FILLER_0_33_137
*1375 FILLER_0_33_149
*1376 FILLER_0_33_15
*1377 FILLER_0_33_161
*1378 FILLER_0_33_167
*1379 FILLER_0_33_169
*1380 FILLER_0_33_181
*1381 FILLER_0_33_193
*1382 FILLER_0_33_225
*1383 FILLER_0_33_235
*1384 FILLER_0_33_247
*1385 FILLER_0_33_259
*1386 FILLER_0_33_27
*1387 FILLER_0_33_271
*1388 FILLER_0_33_279
*1389 FILLER_0_33_281
*1390 FILLER_0_33_293
*1391 FILLER_0_33_3
*1392 FILLER_0_33_305
*1393 FILLER_0_33_317
*1394 FILLER_0_33_329
*1395 FILLER_0_33_335
*1396 FILLER_0_33_337
*1397 FILLER_0_33_349
*1398 FILLER_0_33_361
*1399 FILLER_0_33_39
*1400 FILLER_0_33_390
*1401 FILLER_0_33_393
*1402 FILLER_0_33_401
*1403 FILLER_0_33_51
*1404 FILLER_0_33_55
*1405 FILLER_0_33_57
*1406 FILLER_0_33_69
*1407 FILLER_0_33_81
*1408 FILLER_0_33_93
*1409 FILLER_0_34_109
*1410 FILLER_0_34_121
*1411 FILLER_0_34_133
*1412 FILLER_0_34_139
*1413 FILLER_0_34_141
*1414 FILLER_0_34_15
*1415 FILLER_0_34_153
*1416 FILLER_0_34_165
*1417 FILLER_0_34_177
*1418 FILLER_0_34_189
*1419 FILLER_0_34_195
*1420 FILLER_0_34_217
*1421 FILLER_0_34_228
*1422 FILLER_0_34_253
*1423 FILLER_0_34_265
*1424 FILLER_0_34_27
*1425 FILLER_0_34_277
*1426 FILLER_0_34_283
*1427 FILLER_0_34_29
*1428 FILLER_0_34_295
*1429 FILLER_0_34_3
*1430 FILLER_0_34_307
*1431 FILLER_0_34_309
*1432 FILLER_0_34_321
*1433 FILLER_0_34_333
*1434 FILLER_0_34_345
*1435 FILLER_0_34_357
*1436 FILLER_0_34_363
*1437 FILLER_0_34_365
*1438 FILLER_0_34_377
*1439 FILLER_0_34_395
*1440 FILLER_0_34_41
*1441 FILLER_0_34_53
*1442 FILLER_0_34_65
*1443 FILLER_0_34_77
*1444 FILLER_0_34_83
*1445 FILLER_0_34_85
*1446 FILLER_0_34_97
*1447 FILLER_0_35_101
*1448 FILLER_0_35_108
*1449 FILLER_0_35_113
*1450 FILLER_0_35_125
*1451 FILLER_0_35_137
*1452 FILLER_0_35_149
*1453 FILLER_0_35_15
*1454 FILLER_0_35_161
*1455 FILLER_0_35_167
*1456 FILLER_0_35_169
*1457 FILLER_0_35_18
*1458 FILLER_0_35_181
*1459 FILLER_0_35_193
*1460 FILLER_0_35_205
*1461 FILLER_0_35_217
*1462 FILLER_0_35_223
*1463 FILLER_0_35_248
*1464 FILLER_0_35_257
*1465 FILLER_0_35_269
*1466 FILLER_0_35_277
*1467 FILLER_0_35_3
*1468 FILLER_0_35_304
*1469 FILLER_0_35_316
*1470 FILLER_0_35_328
*1471 FILLER_0_35_337
*1472 FILLER_0_35_349
*1473 FILLER_0_35_361
*1474 FILLER_0_35_373
*1475 FILLER_0_35_385
*1476 FILLER_0_35_391
*1477 FILLER_0_35_393
*1478 FILLER_0_35_405
*1479 FILLER_0_35_43
*1480 FILLER_0_35_47
*1481 FILLER_0_35_55
*1482 FILLER_0_35_57
*1483 FILLER_0_35_69
*1484 FILLER_0_35_81
*1485 FILLER_0_35_93
*1486 FILLER_0_36_109
*1487 FILLER_0_36_121
*1488 FILLER_0_36_133
*1489 FILLER_0_36_139
*1490 FILLER_0_36_145
*1491 FILLER_0_36_149
*1492 FILLER_0_36_15
*1493 FILLER_0_36_161
*1494 FILLER_0_36_173
*1495 FILLER_0_36_185
*1496 FILLER_0_36_193
*1497 FILLER_0_36_197
*1498 FILLER_0_36_209
*1499 FILLER_0_36_221
*1500 FILLER_0_36_233
*1501 FILLER_0_36_245
*1502 FILLER_0_36_251
*1503 FILLER_0_36_253