*SPEF "ieee 1481-1999"
*DESIGN "twos_complement"
*DATE "13:20:58 Monday April 21, 2025"
*VENDOR "The OpenROAD Project"
*PROGRAM "OpenROAD"
*VERSION "b16bda7e82721d10566ff7e2b68f1ff0be9f9e38"
*DESIGN_FLOW "NAME_SCOPE LOCAL" "PIN_CAP NONE"
*DIVIDER /
*DELIMITER :
*BUS_DELIMITER []
*T_UNIT 1 NS
*C_UNIT 1 PF
*R_UNIT 1 OHM
*L_UNIT 1 HENRY

*NAME_MAP
*3 in[0]
*4 in[1]
*5 in[2]
*6 in[3]
*7 in[4]
*8 in[5]
*9 in[6]
*10 in[7]
*11 out[0]
*12 out[1]
*13 out[2]
*14 out[3]
*15 out[4]
*16 out[5]
*17 out[6]
*18 out[7]
*19 _00_
*20 _01_
*21 _02_
*22 _03_
*23 _04_
*24 _05_
*25 _06_
*26 _07_
*27 _08_
*28 _09_
*29 net1
*30 net10
*31 net11
*32 net12
*33 net13
*34 net14
*35 net15
*36 net16
*37 net2
*38 net3
*39 net4
*40 net5
*41 net6
*42 net7
*43 net8
*44 net9
*45 FILLER_0_0_20
*46 FILLER_0_0_29
*47 FILLER_0_0_37
*48 FILLER_0_0_9
*49 FILLER_0_10_18
*50 FILLER_0_10_26
*51 FILLER_0_10_29
*52 FILLER_0_10_41
*53 FILLER_0_10_6
*54 FILLER_0_11_13
*55 FILLER_0_11_25
*56 FILLER_0_11_37
*57 FILLER_0_11_45
*58 FILLER_0_11_6
*59 FILLER_0_12_13
*60 FILLER_0_12_25
*61 FILLER_0_12_29
*62 FILLER_0_12_37
*63 FILLER_0_1_14
*64 FILLER_0_1_22
*65 FILLER_0_1_3
*66 FILLER_0_1_30
*67 FILLER_0_1_38
*68 FILLER_0_1_43
*69 FILLER_0_1_47
*70 FILLER_0_2_12
*71 FILLER_0_2_24
*72 FILLER_0_2_29
*73 FILLER_0_2_3
*74 FILLER_0_2_37
*75 FILLER_0_2_41
*76 FILLER_0_2_47
*77 FILLER_0_3_15
*78 FILLER_0_3_27
*79 FILLER_0_3_39
*80 FILLER_0_3_43
*81 FILLER_0_3_6
*82 FILLER_0_4_15
*83 FILLER_0_4_27
*84 FILLER_0_4_3
*85 FILLER_0_4_36
*86 FILLER_0_5_12
*87 FILLER_0_5_19
*88 FILLER_0_5_31
*89 FILLER_0_5_43
*90 FILLER_0_5_6
*91 FILLER_0_6_11
*92 FILLER_0_6_27
*93 FILLER_0_6_29
*94 FILLER_0_6_3
*95 FILLER_0_6_41
*96 FILLER_0_6_47
*97 FILLER_0_7_20
*98 FILLER_0_7_24
*99 FILLER_0_7_3
*100 FILLER_0_7_30
*101 FILLER_0_7_38
*102 FILLER_0_7_43
*103 FILLER_0_7_47
*104 FILLER_0_8_12
*105 FILLER_0_8_24
*106 FILLER_0_8_34
*107 FILLER_0_8_42
*108 FILLER_0_9_15
*109 FILLER_0_9_26
*110 FILLER_0_9_3
*111 FILLER_0_9_38
*112 FILLER_0_9_46
*113 PHY_EDGE_ROW_0_Left_13
*114 PHY_EDGE_ROW_0_Right_0
*115 PHY_EDGE_ROW_10_Left_23
*116 PHY_EDGE_ROW_10_Right_10
*117 PHY_EDGE_ROW_11_Left_24
*118 PHY_EDGE_ROW_11_Right_11
*119 PHY_EDGE_ROW_12_Left_25
*120 PHY_EDGE_ROW_12_Right_12
*121 PHY_EDGE_ROW_1_Left_14
*122 PHY_EDGE_ROW_1_Right_1
*123 PHY_EDGE_ROW_2_Left_15
*124 PHY_EDGE_ROW_2_Right_2
*125 PHY_EDGE_ROW_3_Left_16
*126 PHY_EDGE_ROW_3_Right_3
*127 PHY_EDGE_ROW_4_Left_17
*128 PHY_EDGE_ROW_4_Right_4
*129 PHY_EDGE_ROW_5_Left_18
*130 PHY_EDGE_ROW_5_Right_5
*131 PHY_EDGE_ROW_6_Left_19
*132 PHY_EDGE_ROW_6_Right_6
*133 PHY_EDGE_ROW_7_Left_20
*134 PHY_EDGE_ROW_7_Right_7
*135 PHY_EDGE_ROW_8_Left_21
*136 PHY_EDGE_ROW_8_Right_8
*137 PHY_EDGE_ROW_9_Left_22
*138 PHY_EDGE_ROW_9_Right_9
*139 TAP_TAPCELL_ROW_0_26
*140 TAP_TAPCELL_ROW_10_31
*141 TAP_TAPCELL_ROW_12_32
*142 TAP_TAPCELL_ROW_2_27
*143 TAP_TAPCELL_ROW_4_28
*144 TAP_TAPCELL_ROW_6_29
*145 TAP_TAPCELL_ROW_8_30
*146 _10_
*147 _11_
*148 _12_
*149 _13_
*150 _14_
*151 _15_
*152 _16_
*153 _17_
*154 _18_
*155 _19_
*156 _20_
*157 _21_
*158 _22_
*159 _23_
*160 _24_
*161 _25_
*162 _26_
*163 _27_
*164 input1
*165 input2
*166 input3
*167 input4
*168 input5
*169 input6
*170 input7
*171 input8
*172 output10
*173 output11
*174 output12
*175 output13
*176 output14
*177 output15
*178 output16
*179 output9

*PORTS
in[0] I
in[1] I
in[2] I
in[3] I
in[4] I
in[5] I
in[6] I
in[7] I
out[0] O
out[1] O
out[2] O
out[3] O
out[4] O
out[5] O
out[6] O
out[7] O

*D_NET *3 0.00111812
*CONN
*P in[0] I
*I *164:A I *D sky130_fd_sc_hd__dlymetal6s2s_1
*CAP
1 in[0] 0.00055906
2 *164:A 0
3 *3:11 0.00055906
4 *3:11 *4:17 0
*RES
1 in[0] *3:11 31.1218 
2 *3:11 *164:A 23 
*END

*D_NET *4 0.000815582
*CONN
*P in[1] I
*I *165:A I *D sky130_fd_sc_hd__buf_1
*CAP
1 in[1] 0.000407791
2 *165:A 0
3 *4:17 0.000407791
4 *4:17 *166:A 0
5 *3:11 *4:17 0
*RES
1 in[1] *4:17 28.9191 
2 *4:17 *165:A 23 
*END

*D_NET *5 0.000622368
*CONN
*P in[2] I
*I *166:A I *D sky130_fd_sc_hd__buf_1
*CAP
1 in[2] 0.000311184
2 *166:A 0.000311184
3 *166:A *6:17 0
4 *4:17 *166:A 0
*RES
1 in[2] *166:A 49.8062 
*END

*D_NET *6 0.00135807
*CONN
*P in[3] I
*I *167:A I *D sky130_fd_sc_hd__clkbuf_1
*CAP
1 in[3] 0.000491824
2 *167:A 0
3 *6:17 0.000491824
4 *6:17 *156:A 0.000144222
5 *6:17 *158:A 0.000230201
6 *6:17 *7:17 0
7 *6:17 *19:25 0
8 *6:17 *25:10 0
9 *166:A *6:17 0
*RES
1 in[3] *6:17 31.0476 
2 *6:17 *167:A 23 
*END

*D_NET *7 0.000668173
*CONN
*P in[4] I
*I *168:A I *D sky130_fd_sc_hd__buf_1
*CAP
1 in[4] 0.000334086
2 *168:A 0
3 *7:17 0.000334086
4 *7:17 *8:17 0
5 *7:17 *25:10 0
6 *6:17 *7:17 0
*RES
1 in[4] *7:17 27.1584 
2 *7:17 *168:A 23 
*END

*D_NET *8 0.000779605
*CONN
*P in[5] I
*I *169:A I *D sky130_fd_sc_hd__buf_1
*CAP
1 in[5] 0.000389802
2 *169:A 0
3 *8:17 0.000389802
4 *8:17 *170:A 0
5 *8:17 *25:10 0
6 *7:17 *8:17 0
*RES
1 in[5] *8:17 28.567 
2 *8:17 *169:A 23 
*END

*D_NET *9 0.000603153
*CONN
*P in[6] I
*I *170:A I *D sky130_fd_sc_hd__clkbuf_1
*CAP
1 in[6] 0.000301577
2 *170:A 0.000301577
3 *170:A *10:11 0
4 *8:17 *170:A 0
*RES
1 in[6] *170:A 49.8062 
*END

*D_NET *10 0.00130197
*CONN
*P in[7] I
*I *171:A I *D sky130_fd_sc_hd__clkbuf_1
*CAP
1 in[7] 0.000650983
2 *171:A 0
3 *10:11 0.000650983
4 *10:11 *38:18 0
5 *170:A *10:11 0
*RES
1 in[7] *10:11 32.0837 
2 *10:11 *171:A 23 
*END

*D_NET *11 0.00123536
*CONN
*P out[0] O
*I *179:X O *D sky130_fd_sc_hd__buf_2
*CAP
1 out[0] 0.00029892
2 *179:X 0.000318757
3 *11:8 0.000617678
4 out[0] out[1] 0
*RES
1 *179:X *11:8 44.6596 
2 *11:8 out[0] 9.10133 
*END

*D_NET *12 0.00046494
*CONN
*P out[1] O
*I *172:X O *D sky130_fd_sc_hd__buf_2
*CAP
1 out[1] 0.00023247
2 *172:X 0.00023247
3 out[1] out[2] 0
4 out[0] out[1] 0
*RES
1 *172:X out[1] 47.0789 
*END

*D_NET *13 0.000463691
*CONN
*P out[2] O
*I *173:X O *D sky130_fd_sc_hd__buf_2
*CAP
1 out[2] 0.000231846
2 *173:X 0.000231846
3 out[2] out[3] 0
4 out[2] *44:10 0
5 out[1] out[2] 0
*RES
1 *173:X out[2] 47.0789 
*END

*D_NET *14 0.000645346
*CONN
*P out[3] O
*I *174:X O *D sky130_fd_sc_hd__buf_2
*CAP
1 out[3] 0.000289936
2 *174:X 0.000289936
3 out[3] out[4] 0
4 out[3] *32:12 6.54744e-05
5 out[2] out[3] 0
*RES
1 *174:X out[3] 48.4875 
*END

*D_NET *15 0.000467688
*CONN
*P out[4] O
*I *175:X O *D sky130_fd_sc_hd__buf_2
*CAP
1 out[4] 0.000227473
2 *175:X 0.000227473
3 out[4] out[5] 0
4 out[4] *32:12 1.27424e-05
5 out[3] out[4] 0
*RES
1 *175:X out[4] 47.0789 
*END

*D_NET *16 0.000649012
*CONN
*P out[5] O
*I *176:X O *D sky130_fd_sc_hd__buf_2
*CAP
1 out[5] 0.000304074
2 *176:X 0.000304074
3 out[5] out[6] 0
4 out[5] *32:12 4.08641e-05
5 out[5] *44:10 0
6 out[4] out[5] 0
*RES
1 *176:X out[5] 48.4875 
*END

*D_NET *17 0.00082954
*CONN
*P out[6] O
*I *177:X O *D sky130_fd_sc_hd__buf_2
*CAP
1 out[6] 0.00041477
2 *177:X 0.00041477
3 out[6] out[7] 0
4 out[5] out[6] 0
*RES
1 *177:X out[6] 47.5941 
*END

*D_NET *18 0.00110166
*CONN
*P out[7] O
*I *178:X O *D sky130_fd_sc_hd__clkbuf_4
*CAP
1 out[7] 0.000175108
2 *178:X 0.000375724
3 *18:8 0.000550832
4 out[6] out[7] 0
*RES
1 *178:X *18:8 45.7161 
2 *18:8 out[7] 8.672 
*END

*D_NET *19 0.00992266
*CONN
*I *162:A I *D sky130_fd_sc_hd__nor2_1
*I *147:B I *D sky130_fd_sc_hd__xnor2_1
*I *146:Y O *D sky130_fd_sc_hd__nor2_1
*CAP
1 *162:A 0
2 *147:B 0
3 *146:Y 0.0013196
4 *19:25 0.000610613
5 *19:14 0.000709549
6 *19:8 0.00132016
7 *19:6 0.0013196
8 *19:6 *146:B 0.000438462
9 *19:6 *37:12 0.00025027
10 *19:6 *37:27 6.81564e-05
11 *19:6 *37:34 0.000290388
12 *19:14 *156:C 0.000181855
13 *19:14 *25:10 0.00124364
14 *19:14 *38:18 5.50106e-05
15 *19:14 *42:8 0.00103296
16 *19:25 *156:C 2.70469e-05
17 *19:25 *25:10 0.000213811
18 *19:25 *29:10 0
19 *19:25 *37:8 0.000841533
20 *6:17 *19:25 0
*RES
1 *146:Y *19:6 41.2493 
2 *19:6 *19:8 15 
3 *19:8 *19:14 38.7179 
4 *19:14 *147:B 23 
5 *19:8 *19:25 30.4736 
6 *19:25 *162:A 23 
*END

*D_NET *20 0.00185236
*CONN
*I *150:A_N I *D sky130_fd_sc_hd__and2b_1
*I *148:X O *D sky130_fd_sc_hd__o31a_1
*CAP
1 *150:A_N 0.000277846
2 *148:X 0.000131904
3 *20:8 0.00040975
4 *150:A_N *149:D 5.50049e-05
5 *150:A_N *21:51 4.74355e-05
6 *150:A_N *21:64 5.29672e-05
7 *150:A_N *22:8 0.000392369
8 *150:A_N *29:42 5.78356e-05
9 *20:8 *151:A 0.000100283
10 *20:8 *37:42 0.000326964
*RES
1 *148:X *20:8 42.3707 
2 *20:8 *150:A_N 44.815 
*END

*D_NET *21 0.00536415
*CONN
*I *153:B I *D sky130_fd_sc_hd__and2_1
*I *150:B I *D sky130_fd_sc_hd__and2b_1
*I *156:D I *D sky130_fd_sc_hd__or4_1
*I *157:A3 I *D sky130_fd_sc_hd__o31ai_1
*I *152:B I *D sky130_fd_sc_hd__nor2_1
*I *149:X O *D sky130_fd_sc_hd__or4_2
*CAP
1 *153:B 0
2 *150:B 0
3 *156:D 0
4 *157:A3 0
5 *152:B 0.000558548
6 *149:X 7.05291e-05
7 *21:64 0.000198796
8 *21:51 0.000308585
9 *21:44 0.000428696
10 *21:36 0.00060694
11 *21:12 0.000750579
12 *21:6 0.000331016
13 *152:B *155:B 0
14 *152:B *23:8 6.41046e-05
15 *152:B *23:23 0
16 *152:B *27:14 0
17 *152:B *38:12 7.19844e-05
18 *152:B *38:18 0.000226106
19 *21:6 *149:D 9.92345e-05
20 *21:12 *149:D 9.72567e-05
21 *21:12 *27:14 0
22 *21:12 *38:12 7.01075e-06
23 *21:12 *40:27 0.000138727
24 *21:36 *27:14 2.5887e-05
25 *21:36 *37:20 6.15719e-05
26 *21:36 *40:27 1.27508e-05
27 *21:44 *149:B 5.3304e-05
28 *21:44 *149:C 9.5877e-05
29 *21:44 *149:D 1.1674e-05
30 *21:44 *156:B 0.000348447
31 *21:44 *29:18 0.000166281
32 *21:44 *37:20 2.64616e-05
33 *21:51 *149:B 5.56356e-05
34 *21:51 *149:D 5.14687e-05
35 *21:51 *29:42 0.000254324
36 *21:64 *158:B 0
37 *21:64 *23:23 0
38 *21:64 *29:42 0.000141954
39 *150:A_N *21:51 4.74355e-05
40 *150:A_N *21:64 5.29672e-05
*RES
1 *149:X *21:6 24.0979 
2 *21:6 *21:12 18.3557 
3 *21:12 *152:B 48.6471 
4 *21:12 *157:A3 38 
5 *21:6 *21:36 31.5536 
6 *21:36 *21:44 39.1557 
7 *21:44 *156:D 23 
8 *21:36 *21:51 3.48 
9 *21:51 *150:B 23 
10 *21:51 *21:64 34.1843 
11 *21:64 *153:B 23 
*END

*D_NET *22 0.00262727
*CONN
*I *151:A I *D sky130_fd_sc_hd__clkbuf_1
*I *150:X O *D sky130_fd_sc_hd__and2b_1
*CAP
1 *151:A 0.000352633
2 *150:X 0.000422462
3 *22:8 0.000775095
4 *151:A *177:A 0.000169665
5 *151:A *31:14 0
6 *151:A *37:42 0
7 *151:A *44:10 0.000414761
8 *150:A_N *22:8 0.000392369
9 *20:8 *151:A 0.000100283
*RES
1 *150:X *22:8 43.8621 
2 *22:8 *151:A 48.7093 
*END

*D_NET *23 0.00429313
*CONN
*I *154:A I *D sky130_fd_sc_hd__nor2_1
*I *155:B I *D sky130_fd_sc_hd__xnor2_1
*I *152:Y O *D sky130_fd_sc_hd__nor2_1
*CAP
1 *154:A 0
2 *155:B 0.000247335
3 *152:Y 0.00045399
4 *23:23 0.000844468
5 *23:8 0.00154579
6 *155:B *29:50 0
7 *155:B *31:14 0
8 *155:B *34:8 0
9 *155:B *36:6 3.22879e-05
10 *155:B *41:16 2.93845e-05
11 *23:23 *148:B1 0.000377181
12 *23:23 *158:B 0
13 *23:23 *24:8 0.000191649
14 *23:23 *27:14 6.21642e-05
15 *23:23 *28:8 0
16 *23:23 *29:44 0
17 *23:23 *29:50 0
18 *23:23 *34:8 0
19 *23:23 *39:12 0.000444772
20 *152:B *155:B 0
21 *152:B *23:8 6.41046e-05
22 *152:B *23:23 0
23 *21:64 *23:23 0
*RES
1 *152:Y *23:8 43.8621 
2 *23:8 *155:B 42.64 
3 *23:8 *23:23 34.1607 
4 *23:23 *154:A 23 
*END

*D_NET *24 0.00063478
*CONN
*I *154:B I *D sky130_fd_sc_hd__nor2_1
*I *153:X O *D sky130_fd_sc_hd__and2_1
*CAP
1 *154:B 0
2 *153:X 0.000221565
3 *24:8 0.000221565
4 *24:8 *158:B 0
5 *24:8 *31:14 0
6 *23:23 *24:8 0.000191649
*RES
1 *153:X *24:8 43.075 
2 *24:8 *154:B 38 
*END

*D_NET *25 0.00594006
*CONN
*I *158:A I *D sky130_fd_sc_hd__and2_1
*I *160:B I *D sky130_fd_sc_hd__xor2_1
*I *156:X O *D sky130_fd_sc_hd__or4_1
*CAP
1 *158:A 0.000829372
2 *160:B 0.000216375
3 *156:X 0
4 *25:10 0.000897657
5 *25:4 0.00151065
6 *158:A *156:A 0.000195147
7 *158:A *27:8 0.000110798
8 *158:A *39:10 0.000388881
9 *160:B *160:A 5.56356e-05
10 *160:B *41:16 4.7891e-05
11 *6:17 *158:A 0.000230201
12 *6:17 *25:10 0
13 *7:17 *25:10 0
14 *8:17 *25:10 0
15 *19:14 *25:10 0.00124364
16 *19:25 *25:10 0.000213811
*RES
1 *156:X *25:4 23 
2 *25:4 *25:10 49.1607 
3 *25:10 *160:B 26.48 
4 *25:4 *158:A 39.0743 
*END

*D_NET *26 0.00252999
*CONN
*I *158:B I *D sky130_fd_sc_hd__and2_1
*I *157:Y O *D sky130_fd_sc_hd__o31ai_1
*CAP
1 *158:B 0.000342149
2 *157:Y 0.000653442
3 *26:8 0.00099559
4 *158:B *146:B 0.000100778
5 *158:B *29:44 0.000216712
6 *158:B *31:14 0.000122304
7 *26:8 *157:A1 9.90115e-05
8 *21:64 *158:B 0
9 *23:23 *158:B 0
10 *24:8 *158:B 0
*RES
1 *157:Y *26:8 46.2443 
2 *26:8 *158:B 45.54 
*END

*D_NET *27 0.00319913
*CONN
*I *159:A I *D sky130_fd_sc_hd__clkbuf_1
*I *158:X O *D sky130_fd_sc_hd__and2_1
*CAP
1 *159:A 0
2 *158:X 0.000313944
3 *27:14 0.000860124
4 *27:8 0.00117407
5 *27:8 *39:10 9.67842e-05
6 *27:14 *148:B1 0.000189163
7 *27:14 *156:A 0
8 *27:14 *28:8 0
9 *27:14 *29:31 6.97718e-05
10 *27:14 *35:8 9.88705e-05
11 *27:14 *39:12 0.000197558
12 *152:B *27:14 0
13 *158:A *27:8 0.000110798
14 *21:12 *27:14 0
15 *21:36 *27:14 2.5887e-05
16 *23:23 *27:14 6.21642e-05
*RES
1 *158:X *27:8 42.4329 
2 *27:8 *27:14 32.1307 
3 *27:14 *159:A 23 
*END

*D_NET *28 0.00159377
*CONN
*I *162:B I *D sky130_fd_sc_hd__nor2_1
*I *161:X O *D sky130_fd_sc_hd__and2_1
*CAP
1 *162:B 6.40794e-05
2 *161:X 0.000531518
3 *28:8 0.000595597
4 *162:B *30:6 7.87782e-05
5 *28:8 *156:A 0.000163352
6 *28:8 *38:10 0.000160446
7 *28:8 *39:12 0
8 *23:23 *28:8 0
9 *27:14 *28:8 0
*RES
1 *161:X *28:8 48.7093 
2 *28:8 *162:B 39.5743 
*END

*D_NET *29 0.00939686
*CONN
*I *146:B I *D sky130_fd_sc_hd__nor2_1
*I *148:A2 I *D sky130_fd_sc_hd__o31a_1
*I *163:A I *D sky130_fd_sc_hd__clkbuf_1
*I *149:B I *D sky130_fd_sc_hd__or4_2
*I *161:B I *D sky130_fd_sc_hd__and2_1
*I *164:X O *D sky130_fd_sc_hd__dlymetal6s2s_1
*CAP
1 *146:B 0.000203717
2 *148:A2 0
3 *163:A 0
4 *149:B 8.29581e-05
5 *161:B 0
6 *164:X 0.000560419
7 *29:50 0.000483634
8 *29:44 0.000694607
9 *29:42 0.000886341
10 *29:31 0.000681856
11 *29:18 0.000486606
12 *29:10 0.000919778
13 *146:B *146:A 0.000278496
14 *146:B *31:14 0.000108681
15 *146:B *37:34 9.41704e-05
16 *29:10 *156:B 4.00583e-05
17 *29:10 *37:8 0.000180158
18 *29:18 *153:A 0.000143543
19 *29:18 *156:B 2.97221e-05
20 *29:18 *37:12 0.000314139
21 *29:18 *37:27 5.56356e-05
22 *29:31 *153:A 5.56279e-05
23 *29:31 *37:20 5.93746e-05
24 *29:31 *37:27 4.21048e-05
25 *29:44 *31:14 0.000518381
26 *29:50 *31:14 0.000623269
27 *29:50 *34:8 0.000127488
28 *29:50 *36:6 0.000171038
29 *150:A_N *29:42 5.78356e-05
30 *155:B *29:50 0
31 *158:B *146:B 0.000100778
32 *158:B *29:44 0.000216712
33 *19:6 *146:B 0.000438462
34 *19:25 *29:10 0
35 *21:44 *149:B 5.3304e-05
36 *21:44 *29:18 0.000166281
37 *21:51 *149:B 5.56356e-05
38 *21:51 *29:42 0.000254324
39 *21:64 *29:42 0.000141954
40 *23:23 *29:44 0
41 *23:23 *29:50 0
42 *27:14 *29:31 6.97718e-05
*RES
1 *164:X *29:10 49.8175 
2 *29:10 *29:18 22.8818 
3 *29:18 *161:B 23 
4 *29:18 *29:31 32.8793 
5 *29:31 *149:B 24.0979 
6 *29:31 *29:42 21.815 
7 *29:42 *29:44 6.83571 
8 *29:44 *29:50 28.1536 
9 *29:50 *163:A 23 
10 *29:44 *148:A2 38 
11 *29:42 *146:B 45.3121 
*END

*D_NET *30 0.00268633
*CONN
*I *172:A I *D sky130_fd_sc_hd__buf_2
*I *162:Y O *D sky130_fd_sc_hd__nor2_1
*CAP
1 *172:A 0
2 *162:Y 0.00119297
3 *30:12 0.000110804
4 *30:6 0.00130378
5 *30:12 *44:10 0
6 *162:B *30:6 7.87782e-05
*RES
1 *162:Y *30:6 38.8671 
2 *30:6 *30:12 31.9057 
3 *30:12 *172:A 23 
*END

*D_NET *31 0.00563094
*CONN
*I *173:A I *D sky130_fd_sc_hd__buf_2
*I *147:Y O *D sky130_fd_sc_hd__xnor2_1
*CAP
1 *173:A 0
2 *147:Y 0.000405366
3 *31:14 0.00140254
4 *31:8 0.0018079
5 *31:14 *177:A 0
6 *31:14 *37:42 0.000642492
7 *31:14 *44:10 0
8 *146:B *31:14 0.000108681
9 *151:A *31:14 0
10 *155:B *31:14 0
11 *158:B *31:14 0.000122304
12 *24:8 *31:14 0
13 *29:44 *31:14 0.000518381
14 *29:50 *31:14 0.000623269
*RES
1 *147:Y *31:8 44.815 
2 *31:8 *31:14 47.9979 
3 *31:14 *173:A 23 
*END

*D_NET *32 0.00241448
*CONN
*I *174:A I *D sky130_fd_sc_hd__buf_2
*I *151:X O *D sky130_fd_sc_hd__clkbuf_1
*CAP
1 *174:A 0
2 *151:X 0.000164548
3 *32:12 0.000668358
4 *32:8 0.000832906
5 *32:12 *175:A 0.000629582
6 *32:12 *44:10 0
7 out[3] *32:12 6.54744e-05
8 out[4] *32:12 1.27424e-05
9 out[5] *32:12 4.08641e-05
*RES
1 *151:X *32:8 40.0507 
2 *32:8 *32:12 30.9914 
3 *32:12 *174:A 23 
*END

*D_NET *33 0.00303041
*CONN
*I *175:A I *D sky130_fd_sc_hd__buf_2
*I *154:Y O *D sky130_fd_sc_hd__nor2_1
*CAP
1 *175:A 0.00037796
2 *154:Y 0.000692479
3 *33:8 0.00107044
4 *175:A *44:10 0.000259953
5 *32:12 *175:A 0.000629582
*RES
1 *154:Y *33:8 46.7207 
2 *33:8 *175:A 48.9786 
*END

*D_NET *34 0.00155629
*CONN
*I *176:A I *D sky130_fd_sc_hd__buf_2
*I *155:Y O *D sky130_fd_sc_hd__xnor2_1
*CAP
1 *176:A 0.000418971
2 *155:Y 0.000231126
3 *34:8 0.000650097
4 *176:A *35:8 0.000128606
5 *155:B *34:8 0
6 *23:23 *34:8 0
7 *29:50 *34:8 0.000127488
*RES
1 *155:Y *34:8 43.075 
2 *34:8 *176:A 45.2914 
*END

*D_NET *35 0.00293154
*CONN
*I *177:A I *D sky130_fd_sc_hd__buf_2
*I *159:X O *D sky130_fd_sc_hd__clkbuf_1
*CAP
1 *177:A 0.000425226
2 *159:X 0.000819892
3 *35:8 0.00124512
4 *177:A *36:12 0
5 *177:A *44:10 4.41619e-05
6 *151:A *177:A 0.000169665
7 *176:A *35:8 0.000128606
8 *27:14 *35:8 9.88705e-05
9 *31:14 *177:A 0
*RES
1 *159:X *35:8 49.1029 
2 *35:8 *177:A 46.5136 
*END

*D_NET *36 0.00257969
*CONN
*I *178:A I *D sky130_fd_sc_hd__clkbuf_4
*I *160:X O *D sky130_fd_sc_hd__xor2_1
*CAP
1 *178:A 0
2 *160:X 0.000991879
3 *36:12 0.000129812
4 *36:6 0.00112169
5 *36:6 *41:16 0.000132981
6 *155:B *36:6 3.22879e-05
7 *177:A *36:12 0
8 *29:50 *36:6 0.000171038
*RES
1 *160:X *36:6 37.4379 
2 *36:6 *36:12 32.2579 
3 *36:12 *178:A 23 
*END

*D_NET *37 0.00703811
*CONN
*I *146:A I *D sky130_fd_sc_hd__nor2_1
*I *148:A1 I *D sky130_fd_sc_hd__o31a_1
*I *161:A I *D sky130_fd_sc_hd__and2_1
*I *149:A I *D sky130_fd_sc_hd__or4_2
*I *165:X O *D sky130_fd_sc_hd__buf_1
*CAP
1 *146:A 0.000123787
2 *148:A1 0
3 *161:A 0
4 *149:A 0
5 *165:X 0.000302541
6 *37:42 0.000320826
7 *37:34 0.000721051
8 *37:27 0.000322378
9 *37:20 0.000146339
10 *37:12 0.000401956
11 *37:8 0.000512218
12 *37:8 *156:B 4.07715e-05
13 *37:8 *156:C 0.000218952
14 *37:20 *149:D 5.56279e-05
15 *37:20 *40:27 0.000104133
16 *37:27 *153:A 2.31687e-05
17 *37:34 *153:A 0.000212441
18 *37:42 *44:10 0
19 *146:B *146:A 0.000278496
20 *146:B *37:34 9.41704e-05
21 *151:A *37:42 0
22 *19:6 *37:12 0.00025027
23 *19:6 *37:27 6.81564e-05
24 *19:6 *37:34 0.000290388
25 *19:25 *37:8 0.000841533
26 *20:8 *37:42 0.000326964
27 *21:36 *37:20 6.15719e-05
28 *21:44 *37:20 2.64616e-05
29 *29:10 *37:8 0.000180158
30 *29:18 *37:12 0.000314139
31 *29:18 *37:27 5.56356e-05
32 *29:31 *37:20 5.93746e-05
33 *29:31 *37:27 4.21048e-05
34 *31:14 *37:42 0.000642492
*RES
1 *165:X *37:8 49.0614 
2 *37:8 *37:12 20.3857 
3 *37:12 *37:20 33.5836 
4 *37:20 *149:A 23 
5 *37:12 *37:27 1.57429 
6 *37:27 *161:A 23 
7 *37:27 *37:34 7.29143 
8 *37:34 *37:42 39.2179 
9 *37:42 *148:A1 23 
10 *37:34 *146:A 26.5007 
*END

*D_NET *38 0.00600094
*CONN
*I *149:C I *D sky130_fd_sc_hd__or4_2
*I *148:A3 I *D sky130_fd_sc_hd__o31a_1
*I *147:A I *D sky130_fd_sc_hd__xnor2_1
*I *166:X O *D sky130_fd_sc_hd__buf_1
*CAP
1 *149:C 4.6161e-05
2 *148:A3 0.000511725
3 *147:A 0
4 *166:X 0.000327161
5 *38:18 0.000656566
6 *38:12 0.001411
7 *38:10 0.000766267
8 *38:8 0.000804561
9 *148:A3 *148:B1 0.000198196
10 *149:C *149:D 2.93845e-05
11 *38:10 *156:A 0.000177029
12 *38:10 *156:B 0
13 *38:10 *40:27 0.000236785
14 *38:12 *156:B 0
15 *38:12 *40:27 0.00021967
16 *38:18 *41:16 0
17 *38:18 *42:8 0
18 *152:B *38:12 7.19844e-05
19 *152:B *38:18 0.000226106
20 *10:11 *38:18 0
21 *19:14 *38:18 5.50106e-05
22 *21:12 *38:12 7.01075e-06
23 *21:44 *149:C 9.5877e-05
24 *28:8 *38:10 0.000160446
*RES
1 *166:X *38:8 41.9564 
2 *38:8 *38:10 10.3571 
3 *38:10 *38:12 5.42714 
4 *38:12 *38:18 28.2157 
5 *38:18 *147:A 23 
6 *38:12 *148:A3 46.7207 
7 *38:10 *149:C 39.0979 
*END

*D_NET *39 0.00434471
*CONN
*I *149:D I *D sky130_fd_sc_hd__or4_2
*I *148:B1 I *D sky130_fd_sc_hd__o31a_1
*I *167:X O *D sky130_fd_sc_hd__clkbuf_1
*CAP
1 *149:D 0.000215906
2 *148:B1 0.000307467
3 *167:X 0.000289292
4 *39:12 0.000736969
5 *39:10 0.000502889
6 *148:A3 *148:B1 0.000198196
7 *149:C *149:D 2.93845e-05
8 *150:A_N *149:D 5.50049e-05
9 *158:A *39:10 0.000388881
10 *21:6 *149:D 9.92345e-05
11 *21:12 *149:D 9.72567e-05
12 *21:44 *149:D 1.1674e-05
13 *21:51 *149:D 5.14687e-05
14 *23:23 *148:B1 0.000377181
15 *23:23 *39:12 0.000444772
16 *27:8 *39:10 9.67842e-05
17 *27:14 *148:B1 0.000189163
18 *27:14 *39:12 0.000197558
19 *28:8 *39:12 0
20 *37:20 *149:D 5.56279e-05
*RES
1 *167:X *39:10 43.8829 
2 *39:10 *39:12 6.13143 
3 *39:12 *148:B1 47.0314 
4 *39:12 *149:D 42.5986 
*END

*D_NET *40 0.00624653
*CONN
*I *157:A1 I *D sky130_fd_sc_hd__o31ai_1
*I *156:A I *D sky130_fd_sc_hd__or4_1
*I *153:A I *D sky130_fd_sc_hd__and2_1
*I *152:A I *D sky130_fd_sc_hd__nor2_1
*I *168:X O *D sky130_fd_sc_hd__buf_1
*CAP
1 *157:A1 7.00379e-05
2 *156:A 0.000330544
3 *153:A 0.000379385
4 *152:A 0
5 *168:X 8.2553e-05
6 *40:27 0.000932425
7 *40:23 0.000404138
8 *40:14 0.000355676
9 *40:6 0.000549833
10 *157:A1 *157:A2 5.2072e-05
11 *40:6 *157:A2 5.3304e-05
12 *40:6 *157:B1 7.15126e-05
13 *40:14 *156:B 3.47781e-05
14 *40:14 *41:16 0.000308652
15 *40:14 *41:23 0.000300098
16 *40:23 *157:A2 0.00027068
17 *40:23 *157:B1 0.000125234
18 *158:A *156:A 0.000195147
19 *6:17 *156:A 0.000144222
20 *21:12 *40:27 0.000138727
21 *21:36 *40:27 1.27508e-05
22 *26:8 *157:A1 9.90115e-05
23 *27:14 *156:A 0
24 *28:8 *156:A 0.000163352
25 *29:18 *153:A 0.000143543
26 *29:31 *153:A 5.56279e-05
27 *37:20 *40:27 0.000104133
28 *37:27 *153:A 2.31687e-05
29 *37:34 *153:A 0.000212441
30 *38:10 *156:A 0.000177029
31 *38:10 *40:27 0.000236785
32 *38:12 *40:27 0.00021967
*RES
1 *168:X *40:6 24.5743 
2 *40:6 *40:14 38.8657 
3 *40:14 *152:A 23 
4 *40:6 *40:23 3.85286 
5 *40:23 *40:27 21.1314 
6 *40:27 *153:A 45.3121 
7 *40:27 *156:A 45.54 
8 *40:23 *157:A1 25.0507 
*END

*D_NET *41 0.00590907
*CONN
*I *156:B I *D sky130_fd_sc_hd__or4_1
*I *157:A2 I *D sky130_fd_sc_hd__o31ai_1
*I *155:A I *D sky130_fd_sc_hd__xnor2_1
*I *169:X O *D sky130_fd_sc_hd__buf_1
*CAP
1 *156:B 0.000349584
2 *157:A2 0.000349213
3 *155:A 0
4 *169:X 9.82853e-05
5 *41:23 0.000802116
6 *41:16 0.000663757
7 *41:8 0.000865362
8 *156:B *156:C 0.000610254
9 *156:B *42:8 3.82956e-05
10 *41:16 *160:A 5.56356e-05
11 *41:16 *42:8 0.000240447
12 *41:23 *42:8 0.000147278
13 *155:B *41:16 2.93845e-05
14 *157:A1 *157:A2 5.2072e-05
15 *160:B *41:16 4.7891e-05
16 *21:44 *156:B 0.000348447
17 *29:10 *156:B 4.00583e-05
18 *29:18 *156:B 2.97221e-05
19 *36:6 *41:16 0.000132981
20 *37:8 *156:B 4.07715e-05
21 *38:10 *156:B 0
22 *38:12 *156:B 0
23 *38:18 *41:16 0
24 *40:6 *157:A2 5.3304e-05
25 *40:14 *156:B 3.47781e-05
26 *40:14 *41:16 0.000308652
27 *40:14 *41:23 0.000300098
28 *40:23 *157:A2 0.00027068
*RES
1 *169:X *41:8 39.0979 
2 *41:8 *41:16 30.3493 
3 *41:16 *155:A 23 
4 *41:8 *41:23 4.01857 
5 *41:23 *157:A2 43.3132 
6 *41:23 *156:B 48.3571 
*END

*D_NET *42 0.00428092
*CONN
*I *156:C I *D sky130_fd_sc_hd__or4_1
*I *157:B1 I *D sky130_fd_sc_hd__o31ai_1
*I *170:X O *D sky130_fd_sc_hd__clkbuf_1
*CAP
1 *156:C 0.000251186
2 *157:B1 0.000194403
3 *170:X 0
4 *42:8 0.00076599
5 *42:6 0.000320401
6 *42:8 *43:8 5.51058e-05
7 *156:B *156:C 0.000610254
8 *156:B *42:8 3.82956e-05
9 *19:14 *156:C 0.000181855
10 *19:14 *42:8 0.00103296
11 *19:25 *156:C 2.70469e-05
12 *37:8 *156:C 0.000218952
13 *38:18 *42:8 0
14 *40:6 *157:B1 7.15126e-05
15 *40:23 *157:B1 0.000125234
16 *41:16 *42:8 0.000240447
17 *41:23 *42:8 0.000147278
*RES
1 *170:X *42:6 38 
2 *42:6 *42:8 13.5264 
3 *42:8 *157:B1 41.9564 
4 *42:8 *156:C 47.0107 
*END

*D_NET *43 0.000416666
*CONN
*I *160:A I *D sky130_fd_sc_hd__xor2_1
*I *171:X O *D sky130_fd_sc_hd__clkbuf_1
*CAP
1 *160:A 1.55776e-05
2 *171:X 0.000109567
3 *43:8 0.000125145
4 *160:B *160:A 5.56356e-05
5 *41:16 *160:A 5.56356e-05
6 *42:8 *43:8 5.51058e-05
*RES
1 *171:X *43:8 40.2579 
2 *43:8 *160:A 38.6214 
*END

*D_NET *44 0.00349046
*CONN
*I *179:A I *D sky130_fd_sc_hd__buf_2
*I *163:X O *D sky130_fd_sc_hd__clkbuf_1
*CAP
1 *179:A 0
2 *163:X 0
3 *44:10 0.00138579
4 *44:6 0.00138579
5 out[2] *44:10 0
6 out[5] *44:10 0
7 *151:A *44:10 0.000414761
8 *175:A *44:10 0.000259953
9 *177:A *44:10 4.41619e-05
10 *30:12 *44:10 0
11 *31:14 *44:10 0
12 *32:12 *44:10 0
13 *37:42 *44:10 0
*RES
1 *163:X *44:6 38 
2 *44:6 *44:10 45.0771 
3 *44:10 *179:A 23 
*END
